-----------------------------
VERSION AND FILE INFORMATION.
-----------------------------

HP1-2.1.002 based on PHREEQC-2.15.0-2697 and HYDRUS1D-4.0 (released on November 02, 2009).

PROJECT FOLDER: C:\ussl\HYDRUS-1D v4\Examples\HP1\CATEXCH
    INPUT FILE: C:\ussl\HYDRUS-1D v4\Examples\HP1\CATEXCH\phreeqc.in
   OUTPUT FILE: C:\ussl\HYDRUS-1D v4\Examples\HP1\CATEXCH\phreeqc.out
 DATABASE FILE: C:\Program Files\PC-Progress\HYDRUS-1D 4.xx\HP1 Databases\PHREEQC.DAT

------------------
Reading data base.
------------------

	SOLUTION_MASTER_SPECIES
	SOLUTION_SPECIES
	PHASES
	EXCHANGE_MASTER_SPECIES
	EXCHANGE_SPECIES
	SURFACE_MASTER_SPECIES
	SURFACE_SPECIES
	RATES
	END
------------------------------------
Reading input data for simulation 1.
------------------------------------

	TITLE : Transport with multiple cation exchange (verification problem 6)
	SOLUTION_MASTER_SPECIES
	SOLUTION_SPECIES
	PHASES
	EXCHANGE_MASTER_SPECIES
	EXCHANGE_SPECIES
	SURFACE_MASTER_SPECIES
	SURFACE_SPECIES
	RATES
	SELECTED_OUTPUT
	 file CATEXCH.hse
	 reset false 
	 solution true 
	 distance true 
	 time true 
	 ph true 
	 pe true 
	SELECTED_OUTPUT
	        totals        Cl Ca Mg Na K Al Br Cd Zn Pb C
	        molalities    CaX2 MgX2 NaX KX AlX3 CdX2 ZnX2 PbX2
	SOLUTION 1001 #initial solution
	  pH               5.5 
	   	Cl 0.0001 
		Ca 0.0001	
		Mg 0.75
		Na 6
		K 2
		Al 0.5
		Cd 0.09
		Zn 0.25
		Pb 0.1
		Br 11.9 charge
	SOLUTION 3001 #Boundary solution
	  ph 2.9 charge
	  Al 0.1
	  Ca 5
	  Mg 1
	  Br 3.7
	  Cl 10
	end
-----
TITLE
-----

 : Transport with multiple cation exchange (verification problem 6)

-------------------------------------------
Beginning of initial solution calculations.
-------------------------------------------

Initial solution 1001.	

-----------------------------Solution composition------------------------------

	Elements           Molality       Moles

	Al               5.000e-004  5.000e-004
	Br               1.115e-002  1.115e-002  Charge balance
	Ca               1.000e-007  1.000e-007
	Cd               9.000e-005  9.000e-005
	Cl               1.000e-007  1.000e-007
	K                2.000e-003  2.000e-003
	Mg               7.500e-004  7.500e-004
	Na               6.000e-003  6.000e-003
	Pb               1.000e-004  1.000e-004
	Zn               2.500e-004  2.500e-004

----------------------------Description of solution----------------------------

                                       pH  =   5.500    
                                       pe  =   4.000    
                        Activity of water  =   1.000
                           Ionic strength  =  1.272e-002
                       Mass of water (kg)  =  1.000e+000
                 Total alkalinity (eq/kg)  =  7.280e-004
                    Total carbon (mol/kg)  =  0.000e+000
                       Total CO2 (mol/kg)  =  0.000e+000
                      Temperature (deg C)  =  25.000
                  Electrical balance (eq)  = -7.054e-018
 Percent error, 100*(Cat-|An|)/(Cat+|An|)  =  -0.00
                               Iterations  =   9
                                  Total H  = 1.110132e+002
                                  Total O  = 5.550695e+001

----------------------------Distribution of species----------------------------

                                                   Log       Log         Log 
   Species                 Molality    Activity  Molality  Activity     Gamma

   H+                    3.492e-006  3.162e-006    -5.457    -5.500    -0.043
   OH-                   3.558e-009  3.165e-009    -8.449    -8.500    -0.051
   H2O                   5.551e+001  9.996e-001     1.744    -0.000     0.000
Al              5.000e-004
   Al(OH)2+              2.607e-004  2.325e-004    -3.584    -3.634    -0.050
   AlOH+2                1.483e-004  9.385e-005    -3.829    -4.028    -0.199
   Al+3                  7.298e-005  2.989e-005    -4.137    -4.524    -0.388
   Al(OH)3               1.080e-005  1.083e-005    -4.967    -4.965     0.001
   Al(OH)4-              7.234e-006  6.453e-006    -5.141    -5.190    -0.050
Br              1.115e-002
   Br-                   1.115e-002  9.901e-003    -1.953    -2.004    -0.052
Ca              1.000e-007
   Ca+2                  1.000e-007  6.431e-008    -7.000    -7.192    -0.192
   CaOH+                 3.782e-015  3.374e-015   -14.422   -14.472    -0.050
Cd              9.000e-005
   Cd+2                  9.000e-005  5.696e-005    -4.046    -4.244    -0.199
   CdOH+                 1.679e-009  1.498e-009    -8.775    -8.825    -0.050
   CdCl+                 5.382e-010  4.800e-010    -9.269    -9.319    -0.050
   Cd(OH)2               2.535e-014  2.542e-014   -13.596   -13.595     0.001
   CdCl2                 1.761e-016  1.766e-016   -15.754   -15.753     0.001
   Cd(OH)3-              1.011e-021  9.018e-022   -20.995   -21.045    -0.050
   CdCl3-                1.103e-023  9.834e-024   -22.958   -23.007    -0.050
   Cd(OH)4-2             4.014e-030  2.541e-030   -29.396   -29.595    -0.199
Cl              1.000e-007
   Cl-                   9.917e-008  8.825e-008    -7.004    -7.054    -0.051
   CdCl+                 5.382e-010  4.800e-010    -9.269    -9.319    -0.050
   PbCl+                 2.482e-010  2.214e-010    -9.605    -9.655    -0.050
   ZnCl+                 4.260e-011  3.799e-011   -10.371   -10.420    -0.050
   CdCl2                 1.761e-016  1.766e-016   -15.754   -15.753     0.001
   PbCl2                 3.087e-017  3.097e-017   -16.510   -16.509     0.001
   ZnCl2                 3.501e-018  3.511e-018   -17.456   -17.455     0.001
   CdCl3-                1.103e-023  9.834e-024   -22.958   -23.007    -0.050
   PbCl3-                2.434e-024  2.171e-024   -23.614   -23.663    -0.050
   ZnCl3-                3.898e-025  3.477e-025   -24.409   -24.459    -0.050
   PbCl4-2               1.449e-031  9.169e-032   -30.839   -31.038    -0.199
   ZnCl4-2               2.430e-032  1.538e-032   -31.614   -31.813    -0.199
H(0)            1.412e-022
   H2                    7.059e-023  7.079e-023   -22.151   -22.150     0.001
K               2.000e-003
   K+                    2.000e-003  1.780e-003    -2.699    -2.750    -0.051
   KOH                   1.945e-012  1.951e-012   -11.711   -11.710     0.001
Mg              7.500e-004
   Mg+2                  7.500e-004  4.861e-004    -3.125    -3.313    -0.188
   MgOH+                 6.255e-010  5.579e-010    -9.204    -9.253    -0.050
Na              6.000e-003
   Na+                   6.000e-003  5.359e-003    -2.222    -2.271    -0.049
   NaOH                  1.116e-011  1.119e-011   -10.952   -10.951     0.001
O(0)            0.000e+000
   O2                    0.000e+000  0.000e+000   -48.082   -48.080     0.001
Pb              1.000e-004
   Pb+2                  9.956e-005  6.301e-005    -4.002    -4.201    -0.199
   PbOH+                 4.354e-007  3.884e-007    -6.361    -6.411    -0.050
   Pb2OH+3               1.534e-009  5.479e-010    -8.814    -9.261    -0.447
   PbCl+                 2.482e-010  2.214e-010    -9.605    -9.655    -0.050
   Pb(OH)2               4.762e-011  4.776e-011   -10.322   -10.321     0.001
   Pb(OH)3-              1.944e-016  1.734e-016   -15.711   -15.761    -0.050
   PbCl2                 3.087e-017  3.097e-017   -16.510   -16.509     0.001
   Pb(OH)4-2             1.984e-022  1.255e-022   -21.703   -21.901    -0.199
   PbCl3-                2.434e-024  2.171e-024   -23.614   -23.663    -0.050
   PbCl4-2               1.449e-031  9.169e-032   -30.839   -31.038    -0.199
Zn              2.500e-004
   Zn+2                  2.499e-004  1.600e-004    -3.602    -3.796    -0.194
   ZnOH+                 6.216e-008  5.544e-008    -7.206    -7.256    -0.050
   Zn(OH)2               2.006e-010  2.012e-010    -9.698    -9.696     0.001
   ZnCl+                 4.260e-011  3.799e-011   -10.371   -10.420    -0.050
   Zn(OH)3-              2.255e-016  2.012e-016   -15.647   -15.696    -0.050
   ZnCl2                 3.501e-018  3.511e-018   -17.456   -17.455     0.001
   Zn(OH)4-2             1.592e-023  1.008e-023   -22.798   -22.997    -0.199
   ZnCl3-                3.898e-025  3.477e-025   -24.409   -24.459    -0.050
   ZnCl4-2               2.430e-032  1.538e-032   -31.614   -31.813    -0.199

------------------------------Saturation indices-------------------------------

	Phase               SI log IAP  log KT

	Al(OH)3(a)        1.18   11.98   10.80  Al(OH)3
	Cd(OH)2          -6.89    6.76   13.65  Cd(OH)2
	Gibbsite          3.87   11.98    8.11  Al(OH)3
	H2(g)           -18.96   24.04   43.00  H2
	H2O(g)           -1.51   -0.00    1.51  H2O
	Halite          -10.91   -9.33    1.58  NaCl
	O2(g)           -45.19  -48.08   -2.89  O2
	Pb(OH)2          -1.35    6.80    8.15  Pb(OH)2
	Zn(OH)2(e)       -4.30    7.20   11.50  Zn(OH)2

Initial solution 3001.	

-----------------------------Solution composition------------------------------

	Elements           Molality       Moles

	Al               1.000e-004  1.000e-004
	Br               3.700e-003  3.700e-003
	Ca               5.000e-003  5.000e-003
	Cl               1.000e-002  1.000e-002
	Mg               1.000e-003  1.000e-003

----------------------------Description of solution----------------------------

                                       pH  =   2.905      Charge balance
                                       pe  =   4.000    
                        Activity of water  =   1.000
                           Ionic strength  =  2.000e-002
                       Mass of water (kg)  =  1.000e+000
                 Total alkalinity (eq/kg)  = -1.400e-003
                    Total carbon (mol/kg)  =  0.000e+000
                       Total CO2 (mol/kg)  =  0.000e+000
                      Temperature (deg C)  =  25.000
                  Electrical balance (eq)  = -2.827e-011
 Percent error, 100*(Cat-|An|)/(Cat+|An|)  =  -0.00
                               Iterations  =   3
                                  Total H  = 1.110138e+002
                                  Total O  = 5.550622e+001

----------------------------Distribution of species----------------------------

                                                   Log       Log         Log 
   Species                 Molality    Activity  Molality  Activity     Gamma

   H+                    1.400e-003  1.246e-003    -2.854    -2.905    -0.051
   OH-                   9.264e-012  8.032e-012   -11.033   -11.095    -0.062
   H2O                   5.551e+001  9.996e-001     1.744    -0.000     0.000
Al              1.000e-004
   Al+3                  9.952e-005  3.473e-005    -4.002    -4.459    -0.457
   AlOH+2                4.812e-007  2.768e-007    -6.318    -6.558    -0.240
   Al(OH)2+              1.999e-009  1.741e-009    -8.699    -8.759    -0.060
   Al(OH)3               2.048e-013  2.058e-013   -12.689   -12.687     0.002
   Al(OH)4-              3.573e-016  3.112e-016   -15.447   -15.507    -0.060
Br              3.700e-003
   Br-                   3.700e-003  3.199e-003    -2.432    -2.495    -0.063
Ca              5.000e-003
   Ca+2                  5.000e-003  2.941e-003    -2.301    -2.532    -0.231
   CaOH+                 4.496e-013  3.916e-013   -12.347   -12.407    -0.060
Cl              1.000e-002
   Cl-                   1.000e-002  8.676e-003    -2.000    -2.062    -0.062
H(0)            2.188e-017
   H2                    1.094e-017  1.099e-017   -16.961   -16.959     0.002
Mg              1.000e-003
   Mg+2                  1.000e-003  5.950e-004    -3.000    -3.225    -0.225
   MgOH+                 1.990e-012  1.733e-012   -11.701   -11.761    -0.060
O(0)            0.000e+000
   O2                    0.000e+000  0.000e+000   -58.464   -58.462     0.002

------------------------------Saturation indices-------------------------------

	Phase               SI log IAP  log KT

	Al(OH)3(a)       -6.55    4.25   10.80  Al(OH)3
	Gibbsite         -3.86    4.25    8.11  Al(OH)3
	H2(g)           -13.77   29.23   43.00  H2
	H2O(g)           -1.51   -0.00    1.51  H2O
	O2(g)           -55.57  -58.46   -2.89  O2

------------------
End of simulation.
------------------

------------------------------------
Reading input data for simulation 2.
------------------------------------

	END
------------------
End of simulation.
------------------

------------------------------------
Reading input data for simulation 3.
------------------------------------

	MIX 1 
		1001	0.500000	
	 SAVE SOLUTION	1	 
	 END
-----------------------------------------
Beginning of batch-reaction calculations.
-----------------------------------------

Reaction step 1.

Using mix 1.	

Mixture 1.	

	 5.000e-001 Solution 1001	                                                       

-----------------------------Solution composition------------------------------

	Elements           Molality       Moles

	Al               5.000e-004  2.500e-004
	Br               1.115e-002  5.576e-003
	Ca               1.000e-007  5.000e-008
	Cd               9.000e-005  4.500e-005
	Cl               1.000e-007  5.000e-008
	K                2.000e-003  1.000e-003
	Mg               7.500e-004  3.750e-004
	Na               6.000e-003  3.000e-003
	Pb               1.000e-004  5.000e-005
	Zn               2.500e-004  1.250e-004

----------------------------Description of solution----------------------------

                                       pH  =   5.500      Charge balance
                                       pe  =   4.000      Adjusted to redox equilibrium
                        Activity of water  =   1.000
                           Ionic strength  =  1.272e-002
                       Mass of water (kg)  =  5.000e-001
                 Total alkalinity (eq/kg)  =  7.280e-004
                    Total carbon (mol/kg)  =  0.000e+000
                       Total CO2 (mol/kg)  =  0.000e+000
                      Temperature (deg C)  =  25.000
                  Electrical balance (eq)  = -3.527e-018
 Percent error, 100*(Cat-|An|)/(Cat+|An|)  =  -0.00
                               Iterations  =   0
                                  Total H  = 5.550658e+001
                                  Total O  = 2.775347e+001

----------------------------Distribution of species----------------------------

                                                   Log       Log         Log 
   Species                 Molality    Activity  Molality  Activity     Gamma

   H+                    3.492e-006  3.162e-006    -5.457    -5.500    -0.043
   OH-                   3.558e-009  3.165e-009    -8.449    -8.500    -0.051
   H2O                   5.551e+001  9.996e-001     1.744    -0.000     0.000
Al              5.000e-004
   Al(OH)2+              2.607e-004  2.325e-004    -3.584    -3.634    -0.050
   AlOH+2                1.483e-004  9.385e-005    -3.829    -4.028    -0.199
   Al+3                  7.298e-005  2.989e-005    -4.137    -4.524    -0.388
   Al(OH)3               1.080e-005  1.083e-005    -4.967    -4.965     0.001
   Al(OH)4-              7.234e-006  6.453e-006    -5.141    -5.190    -0.050
Br              1.115e-002
   Br-                   1.115e-002  9.901e-003    -1.953    -2.004    -0.052
Ca              1.000e-007
   Ca+2                  1.000e-007  6.431e-008    -7.000    -7.192    -0.192
   CaOH+                 3.782e-015  3.374e-015   -14.422   -14.472    -0.050
Cd              9.000e-005
   Cd+2                  9.000e-005  5.696e-005    -4.046    -4.244    -0.199
   CdOH+                 1.679e-009  1.498e-009    -8.775    -8.825    -0.050
   CdCl+                 5.382e-010  4.800e-010    -9.269    -9.319    -0.050
   Cd(OH)2               2.535e-014  2.542e-014   -13.596   -13.595     0.001
   CdCl2                 1.761e-016  1.766e-016   -15.754   -15.753     0.001
   Cd(OH)3-              1.011e-021  9.018e-022   -20.995   -21.045    -0.050
   CdCl3-                1.103e-023  9.834e-024   -22.958   -23.007    -0.050
   Cd(OH)4-2             4.014e-030  2.541e-030   -29.396   -29.595    -0.199
Cl              1.000e-007
   Cl-                   9.917e-008  8.825e-008    -7.004    -7.054    -0.051
   CdCl+                 5.382e-010  4.800e-010    -9.269    -9.319    -0.050
   PbCl+                 2.482e-010  2.214e-010    -9.605    -9.655    -0.050
   ZnCl+                 4.260e-011  3.799e-011   -10.371   -10.420    -0.050
   CdCl2                 1.761e-016  1.766e-016   -15.754   -15.753     0.001
   PbCl2                 3.087e-017  3.097e-017   -16.510   -16.509     0.001
   ZnCl2                 3.501e-018  3.511e-018   -17.456   -17.455     0.001
   CdCl3-                1.103e-023  9.834e-024   -22.958   -23.007    -0.050
   PbCl3-                2.434e-024  2.171e-024   -23.614   -23.663    -0.050
   ZnCl3-                3.898e-025  3.477e-025   -24.409   -24.459    -0.050
   PbCl4-2               1.449e-031  9.169e-032   -30.839   -31.038    -0.199
   ZnCl4-2               2.430e-032  1.538e-032   -31.614   -31.813    -0.199
H(0)            1.412e-022
   H2                    7.059e-023  7.079e-023   -22.151   -22.150     0.001
K               2.000e-003
   K+                    2.000e-003  1.780e-003    -2.699    -2.750    -0.051
   KOH                   1.945e-012  1.951e-012   -11.711   -11.710     0.001
Mg              7.500e-004
   Mg+2                  7.500e-004  4.861e-004    -3.125    -3.313    -0.188
   MgOH+                 6.255e-010  5.579e-010    -9.204    -9.253    -0.050
Na              6.000e-003
   Na+                   6.000e-003  5.359e-003    -2.222    -2.271    -0.049
   NaOH                  1.116e-011  1.119e-011   -10.952   -10.951     0.001
O(0)            0.000e+000
   O2                    0.000e+000  0.000e+000   -48.082   -48.080     0.001
Pb              1.000e-004
   Pb+2                  9.956e-005  6.301e-005    -4.002    -4.201    -0.199
   PbOH+                 4.354e-007  3.884e-007    -6.361    -6.411    -0.050
   Pb2OH+3               1.534e-009  5.479e-010    -8.814    -9.261    -0.447
   PbCl+                 2.482e-010  2.214e-010    -9.605    -9.655    -0.050
   Pb(OH)2               4.762e-011  4.776e-011   -10.322   -10.321     0.001
   Pb(OH)3-              1.944e-016  1.734e-016   -15.711   -15.761    -0.050
   PbCl2                 3.087e-017  3.097e-017   -16.510   -16.509     0.001
   Pb(OH)4-2             1.984e-022  1.255e-022   -21.703   -21.901    -0.199
   PbCl3-                2.434e-024  2.171e-024   -23.614   -23.663    -0.050
   PbCl4-2               1.449e-031  9.169e-032   -30.839   -31.038    -0.199
Zn              2.500e-004
   Zn+2                  2.499e-004  1.600e-004    -3.602    -3.796    -0.194
   ZnOH+                 6.216e-008  5.544e-008    -7.206    -7.256    -0.050
   Zn(OH)2               2.006e-010  2.012e-010    -9.698    -9.696     0.001
   ZnCl+                 4.260e-011  3.799e-011   -10.371   -10.420    -0.050
   Zn(OH)3-              2.255e-016  2.012e-016   -15.647   -15.696    -0.050
   ZnCl2                 3.501e-018  3.511e-018   -17.456   -17.455     0.001
   Zn(OH)4-2             1.592e-023  1.008e-023   -22.798   -22.997    -0.199
   ZnCl3-                3.898e-025  3.477e-025   -24.409   -24.459    -0.050
   ZnCl4-2               2.430e-032  1.538e-032   -31.614   -31.813    -0.199

------------------------------Saturation indices-------------------------------

	Phase               SI log IAP  log KT

	Al(OH)3(a)        1.18   11.98   10.80  Al(OH)3
	Cd(OH)2          -6.89    6.76   13.65  Cd(OH)2
	Gibbsite          3.87   11.98    8.11  Al(OH)3
	H2(g)           -18.96   24.04   43.00  H2
	H2O(g)           -1.51   -0.00    1.51  H2O
	Halite          -10.91   -9.33    1.58  NaCl
	O2(g)           -45.19  -48.08   -2.89  O2
	Pb(OH)2          -1.35    6.80    8.15  Pb(OH)2
	Zn(OH)2(e)       -4.30    7.20   11.50  Zn(OH)2

------------------
End of simulation.
------------------

------------------------------------
Reading input data for simulation 4.
------------------------------------

	MIX 2 
		1001	0.500000	
	 SAVE SOLUTION	2	 
	 END
-----------------------------------------
Beginning of batch-reaction calculations.
-----------------------------------------

Reaction step 1.

Using mix 2.	

Mixture 2.	

	 5.000e-001 Solution 1001	                                                       

-----------------------------Solution composition------------------------------

	Elements           Molality       Moles

	Al               5.000e-004  2.500e-004
	Br               1.115e-002  5.576e-003
	Ca               1.000e-007  5.000e-008
	Cd               9.000e-005  4.500e-005
	Cl               1.000e-007  5.000e-008
	K                2.000e-003  1.000e-003
	Mg               7.500e-004  3.750e-004
	Na               6.000e-003  3.000e-003
	Pb               1.000e-004  5.000e-005
	Zn               2.500e-004  1.250e-004

----------------------------Description of solution----------------------------

                                       pH  =   5.500      Charge balance
                                       pe  =   4.000      Adjusted to redox equilibrium
                        Activity of water  =   1.000
                           Ionic strength  =  1.272e-002
                       Mass of water (kg)  =  5.000e-001
                 Total alkalinity (eq/kg)  =  7.280e-004
                    Total carbon (mol/kg)  =  0.000e+000
                       Total CO2 (mol/kg)  =  0.000e+000
                      Temperature (deg C)  =  25.000
                  Electrical balance (eq)  = -3.527e-018
 Percent error, 100*(Cat-|An|)/(Cat+|An|)  =  -0.00
                               Iterations  =   0
                                  Total H  = 5.550658e+001
                                  Total O  = 2.775347e+001

----------------------------Distribution of species----------------------------

                                                   Log       Log         Log 
   Species                 Molality    Activity  Molality  Activity     Gamma

   H+                    3.492e-006  3.162e-006    -5.457    -5.500    -0.043
   OH-                   3.558e-009  3.165e-009    -8.449    -8.500    -0.051
   H2O                   5.551e+001  9.996e-001     1.744    -0.000     0.000
Al              5.000e-004
   Al(OH)2+              2.607e-004  2.325e-004    -3.584    -3.634    -0.050
   AlOH+2                1.483e-004  9.385e-005    -3.829    -4.028    -0.199
   Al+3                  7.298e-005  2.989e-005    -4.137    -4.524    -0.388
   Al(OH)3               1.080e-005  1.083e-005    -4.967    -4.965     0.001
   Al(OH)4-              7.234e-006  6.453e-006    -5.141    -5.190    -0.050
Br              1.115e-002
   Br-                   1.115e-002  9.901e-003    -1.953    -2.004    -0.052
Ca              1.000e-007
   Ca+2                  1.000e-007  6.431e-008    -7.000    -7.192    -0.192
   CaOH+                 3.782e-015  3.374e-015   -14.422   -14.472    -0.050
Cd              9.000e-005
   Cd+2                  9.000e-005  5.696e-005    -4.046    -4.244    -0.199
   CdOH+                 1.679e-009  1.498e-009    -8.775    -8.825    -0.050
   CdCl+                 5.382e-010  4.800e-010    -9.269    -9.319    -0.050
   Cd(OH)2               2.535e-014  2.542e-014   -13.596   -13.595     0.001
   CdCl2                 1.761e-016  1.766e-016   -15.754   -15.753     0.001
   Cd(OH)3-              1.011e-021  9.018e-022   -20.995   -21.045    -0.050
   CdCl3-                1.103e-023  9.834e-024   -22.958   -23.007    -0.050
   Cd(OH)4-2             4.014e-030  2.541e-030   -29.396   -29.595    -0.199
Cl              1.000e-007
   Cl-                   9.917e-008  8.825e-008    -7.004    -7.054    -0.051
   CdCl+                 5.382e-010  4.800e-010    -9.269    -9.319    -0.050
   PbCl+                 2.482e-010  2.214e-010    -9.605    -9.655    -0.050
   ZnCl+                 4.260e-011  3.799e-011   -10.371   -10.420    -0.050
   CdCl2                 1.761e-016  1.766e-016   -15.754   -15.753     0.001
   PbCl2                 3.087e-017  3.097e-017   -16.510   -16.509     0.001
   ZnCl2                 3.501e-018  3.511e-018   -17.456   -17.455     0.001
   CdCl3-                1.103e-023  9.834e-024   -22.958   -23.007    -0.050
   PbCl3-                2.434e-024  2.171e-024   -23.614   -23.663    -0.050
   ZnCl3-                3.898e-025  3.477e-025   -24.409   -24.459    -0.050
   PbCl4-2               1.449e-031  9.169e-032   -30.839   -31.038    -0.199
   ZnCl4-2               2.430e-032  1.538e-032   -31.614   -31.813    -0.199
H(0)            1.412e-022
   H2                    7.059e-023  7.079e-023   -22.151   -22.150     0.001
K               2.000e-003
   K+                    2.000e-003  1.780e-003    -2.699    -2.750    -0.051
   KOH                   1.945e-012  1.951e-012   -11.711   -11.710     0.001
Mg              7.500e-004
   Mg+2                  7.500e-004  4.861e-004    -3.125    -3.313    -0.188
   MgOH+                 6.255e-010  5.579e-010    -9.204    -9.253    -0.050
Na              6.000e-003
   Na+                   6.000e-003  5.359e-003    -2.222    -2.271    -0.049
   NaOH                  1.116e-011  1.119e-011   -10.952   -10.951     0.001
O(0)            0.000e+000
   O2                    0.000e+000  0.000e+000   -48.082   -48.080     0.001
Pb              1.000e-004
   Pb+2                  9.956e-005  6.301e-005    -4.002    -4.201    -0.199
   PbOH+                 4.354e-007  3.884e-007    -6.361    -6.411    -0.050
   Pb2OH+3               1.534e-009  5.479e-010    -8.814    -9.261    -0.447
   PbCl+                 2.482e-010  2.214e-010    -9.605    -9.655    -0.050
   Pb(OH)2               4.762e-011  4.776e-011   -10.322   -10.321     0.001
   Pb(OH)3-              1.944e-016  1.734e-016   -15.711   -15.761    -0.050
   PbCl2                 3.087e-017  3.097e-017   -16.510   -16.509     0.001
   Pb(OH)4-2             1.984e-022  1.255e-022   -21.703   -21.901    -0.199
   PbCl3-                2.434e-024  2.171e-024   -23.614   -23.663    -0.050
   PbCl4-2               1.449e-031  9.169e-032   -30.839   -31.038    -0.199
Zn              2.500e-004
   Zn+2                  2.499e-004  1.600e-004    -3.602    -3.796    -0.194
   ZnOH+                 6.216e-008  5.544e-008    -7.206    -7.256    -0.050
   Zn(OH)2               2.006e-010  2.012e-010    -9.698    -9.696     0.001
   ZnCl+                 4.260e-011  3.799e-011   -10.371   -10.420    -0.050
   Zn(OH)3-              2.255e-016  2.012e-016   -15.647   -15.696    -0.050
   ZnCl2                 3.501e-018  3.511e-018   -17.456   -17.455     0.001
   Zn(OH)4-2             1.592e-023  1.008e-023   -22.798   -22.997    -0.199
   ZnCl3-                3.898e-025  3.477e-025   -24.409   -24.459    -0.050
   ZnCl4-2               2.430e-032  1.538e-032   -31.614   -31.813    -0.199

------------------------------Saturation indices-------------------------------

	Phase               SI log IAP  log KT

	Al(OH)3(a)        1.18   11.98   10.80  Al(OH)3
	Cd(OH)2          -6.89    6.76   13.65  Cd(OH)2
	Gibbsite          3.87   11.98    8.11  Al(OH)3
	H2(g)           -18.96   24.04   43.00  H2
	H2O(g)           -1.51   -0.00    1.51  H2O
	Halite          -10.91   -9.33    1.58  NaCl
	O2(g)           -45.19  -48.08   -2.89  O2
	Pb(OH)2          -1.35    6.80    8.15  Pb(OH)2
	Zn(OH)2(e)       -4.30    7.20   11.50  Zn(OH)2

------------------
End of simulation.
------------------

------------------------------------
Reading input data for simulation 5.
------------------------------------

	MIX 3 
		1001	0.500000	
	 SAVE SOLUTION	3	 
	 END
-----------------------------------------
Beginning of batch-reaction calculations.
-----------------------------------------

Reaction step 1.

Using mix 3.	

Mixture 3.	

	 5.000e-001 Solution 1001	                                                       

-----------------------------Solution composition------------------------------

	Elements           Molality       Moles

	Al               5.000e-004  2.500e-004
	Br               1.115e-002  5.576e-003
	Ca               1.000e-007  5.000e-008
	Cd               9.000e-005  4.500e-005
	Cl               1.000e-007  5.000e-008
	K                2.000e-003  1.000e-003
	Mg               7.500e-004  3.750e-004
	Na               6.000e-003  3.000e-003
	Pb               1.000e-004  5.000e-005
	Zn               2.500e-004  1.250e-004

----------------------------Description of solution----------------------------

                                       pH  =   5.500      Charge balance
                                       pe  =   4.000      Adjusted to redox equilibrium
                        Activity of water  =   1.000
                           Ionic strength  =  1.272e-002
                       Mass of water (kg)  =  5.000e-001
                 Total alkalinity (eq/kg)  =  7.280e-004
                    Total carbon (mol/kg)  =  0.000e+000
                       Total CO2 (mol/kg)  =  0.000e+000
                      Temperature (deg C)  =  25.000
                  Electrical balance (eq)  = -3.527e-018
 Percent error, 100*(Cat-|An|)/(Cat+|An|)  =  -0.00
                               Iterations  =   0
                                  Total H  = 5.550658e+001
                                  Total O  = 2.775347e+001

----------------------------Distribution of species----------------------------

                                                   Log       Log         Log 
   Species                 Molality    Activity  Molality  Activity     Gamma

   H+                    3.492e-006  3.162e-006    -5.457    -5.500    -0.043
   OH-                   3.558e-009  3.165e-009    -8.449    -8.500    -0.051
   H2O                   5.551e+001  9.996e-001     1.744    -0.000     0.000
Al              5.000e-004
   Al(OH)2+              2.607e-004  2.325e-004    -3.584    -3.634    -0.050
   AlOH+2                1.483e-004  9.385e-005    -3.829    -4.028    -0.199
   Al+3                  7.298e-005  2.989e-005    -4.137    -4.524    -0.388
   Al(OH)3               1.080e-005  1.083e-005    -4.967    -4.965     0.001
   Al(OH)4-              7.234e-006  6.453e-006    -5.141    -5.190    -0.050
Br              1.115e-002
   Br-                   1.115e-002  9.901e-003    -1.953    -2.004    -0.052
Ca              1.000e-007
   Ca+2                  1.000e-007  6.431e-008    -7.000    -7.192    -0.192
   CaOH+                 3.782e-015  3.374e-015   -14.422   -14.472    -0.050
Cd              9.000e-005
   Cd+2                  9.000e-005  5.696e-005    -4.046    -4.244    -0.199
   CdOH+                 1.679e-009  1.498e-009    -8.775    -8.825    -0.050
   CdCl+                 5.382e-010  4.800e-010    -9.269    -9.319    -0.050
   Cd(OH)2               2.535e-014  2.542e-014   -13.596   -13.595     0.001
   CdCl2                 1.761e-016  1.766e-016   -15.754   -15.753     0.001
   Cd(OH)3-              1.011e-021  9.018e-022   -20.995   -21.045    -0.050
   CdCl3-                1.103e-023  9.834e-024   -22.958   -23.007    -0.050
   Cd(OH)4-2             4.014e-030  2.541e-030   -29.396   -29.595    -0.199
Cl              1.000e-007
   Cl-                   9.917e-008  8.825e-008    -7.004    -7.054    -0.051
   CdCl+                 5.382e-010  4.800e-010    -9.269    -9.319    -0.050
   PbCl+                 2.482e-010  2.214e-010    -9.605    -9.655    -0.050
   ZnCl+                 4.260e-011  3.799e-011   -10.371   -10.420    -0.050
   CdCl2                 1.761e-016  1.766e-016   -15.754   -15.753     0.001
   PbCl2                 3.087e-017  3.097e-017   -16.510   -16.509     0.001
   ZnCl2                 3.501e-018  3.511e-018   -17.456   -17.455     0.001
   CdCl3-                1.103e-023  9.834e-024   -22.958   -23.007    -0.050
   PbCl3-                2.434e-024  2.171e-024   -23.614   -23.663    -0.050
   ZnCl3-                3.898e-025  3.477e-025   -24.409   -24.459    -0.050
   PbCl4-2               1.449e-031  9.169e-032   -30.839   -31.038    -0.199
   ZnCl4-2               2.430e-032  1.538e-032   -31.614   -31.813    -0.199
H(0)            1.412e-022
   H2                    7.059e-023  7.079e-023   -22.151   -22.150     0.001
K               2.000e-003
   K+                    2.000e-003  1.780e-003    -2.699    -2.750    -0.051
   KOH                   1.945e-012  1.951e-012   -11.711   -11.710     0.001
Mg              7.500e-004
   Mg+2                  7.500e-004  4.861e-004    -3.125    -3.313    -0.188
   MgOH+                 6.255e-010  5.579e-010    -9.204    -9.253    -0.050
Na              6.000e-003
   Na+                   6.000e-003  5.359e-003    -2.222    -2.271    -0.049
   NaOH                  1.116e-011  1.119e-011   -10.952   -10.951     0.001
O(0)            0.000e+000
   O2                    0.000e+000  0.000e+000   -48.082   -48.080     0.001
Pb              1.000e-004
   Pb+2                  9.956e-005  6.301e-005    -4.002    -4.201    -0.199
   PbOH+                 4.354e-007  3.884e-007    -6.361    -6.411    -0.050
   Pb2OH+3               1.534e-009  5.479e-010    -8.814    -9.261    -0.447
   PbCl+                 2.482e-010  2.214e-010    -9.605    -9.655    -0.050
   Pb(OH)2               4.762e-011  4.776e-011   -10.322   -10.321     0.001
   Pb(OH)3-              1.944e-016  1.734e-016   -15.711   -15.761    -0.050
   PbCl2                 3.087e-017  3.097e-017   -16.510   -16.509     0.001
   Pb(OH)4-2             1.984e-022  1.255e-022   -21.703   -21.901    -0.199
   PbCl3-                2.434e-024  2.171e-024   -23.614   -23.663    -0.050
   PbCl4-2               1.449e-031  9.169e-032   -30.839   -31.038    -0.199
Zn              2.500e-004
   Zn+2                  2.499e-004  1.600e-004    -3.602    -3.796    -0.194
   ZnOH+                 6.216e-008  5.544e-008    -7.206    -7.256    -0.050
   Zn(OH)2               2.006e-010  2.012e-010    -9.698    -9.696     0.001
   ZnCl+                 4.260e-011  3.799e-011   -10.371   -10.420    -0.050
   Zn(OH)3-              2.255e-016  2.012e-016   -15.647   -15.696    -0.050
   ZnCl2                 3.501e-018  3.511e-018   -17.456   -17.455     0.001
   Zn(OH)4-2             1.592e-023  1.008e-023   -22.798   -22.997    -0.199
   ZnCl3-                3.898e-025  3.477e-025   -24.409   -24.459    -0.050
   ZnCl4-2               2.430e-032  1.538e-032   -31.614   -31.813    -0.199

------------------------------Saturation indices-------------------------------

	Phase               SI log IAP  log KT

	Al(OH)3(a)        1.18   11.98   10.80  Al(OH)3
	Cd(OH)2          -6.89    6.76   13.65  Cd(OH)2
	Gibbsite          3.87   11.98    8.11  Al(OH)3
	H2(g)           -18.96   24.04   43.00  H2
	H2O(g)           -1.51   -0.00    1.51  H2O
	Halite          -10.91   -9.33    1.58  NaCl
	O2(g)           -45.19  -48.08   -2.89  O2
	Pb(OH)2          -1.35    6.80    8.15  Pb(OH)2
	Zn(OH)2(e)       -4.30    7.20   11.50  Zn(OH)2

------------------
End of simulation.
------------------

------------------------------------
Reading input data for simulation 6.
------------------------------------

	MIX 4 
		1001	0.500000	
	 SAVE SOLUTION	4	 
	 END
-----------------------------------------
Beginning of batch-reaction calculations.
-----------------------------------------

Reaction step 1.

Using mix 4.	

Mixture 4.	

	 5.000e-001 Solution 1001	                                                       

-----------------------------Solution composition------------------------------

	Elements           Molality       Moles

	Al               5.000e-004  2.500e-004
	Br               1.115e-002  5.576e-003
	Ca               1.000e-007  5.000e-008
	Cd               9.000e-005  4.500e-005
	Cl               1.000e-007  5.000e-008
	K                2.000e-003  1.000e-003
	Mg               7.500e-004  3.750e-004
	Na               6.000e-003  3.000e-003
	Pb               1.000e-004  5.000e-005
	Zn               2.500e-004  1.250e-004

----------------------------Description of solution----------------------------

                                       pH  =   5.500      Charge balance
                                       pe  =   4.000      Adjusted to redox equilibrium
                        Activity of water  =   1.000
                           Ionic strength  =  1.272e-002
                       Mass of water (kg)  =  5.000e-001
                 Total alkalinity (eq/kg)  =  7.280e-004
                    Total carbon (mol/kg)  =  0.000e+000
                       Total CO2 (mol/kg)  =  0.000e+000
                      Temperature (deg C)  =  25.000
                  Electrical balance (eq)  = -3.527e-018
 Percent error, 100*(Cat-|An|)/(Cat+|An|)  =  -0.00
                               Iterations  =   0
                                  Total H  = 5.550658e+001
                                  Total O  = 2.775347e+001

----------------------------Distribution of species----------------------------

                                                   Log       Log         Log 
   Species                 Molality    Activity  Molality  Activity     Gamma

   H+                    3.492e-006  3.162e-006    -5.457    -5.500    -0.043
   OH-                   3.558e-009  3.165e-009    -8.449    -8.500    -0.051
   H2O                   5.551e+001  9.996e-001     1.744    -0.000     0.000
Al              5.000e-004
   Al(OH)2+              2.607e-004  2.325e-004    -3.584    -3.634    -0.050
   AlOH+2                1.483e-004  9.385e-005    -3.829    -4.028    -0.199
   Al+3                  7.298e-005  2.989e-005    -4.137    -4.524    -0.388
   Al(OH)3               1.080e-005  1.083e-005    -4.967    -4.965     0.001
   Al(OH)4-              7.234e-006  6.453e-006    -5.141    -5.190    -0.050
Br              1.115e-002
   Br-                   1.115e-002  9.901e-003    -1.953    -2.004    -0.052
Ca              1.000e-007
   Ca+2                  1.000e-007  6.431e-008    -7.000    -7.192    -0.192
   CaOH+                 3.782e-015  3.374e-015   -14.422   -14.472    -0.050
Cd              9.000e-005
   Cd+2                  9.000e-005  5.696e-005    -4.046    -4.244    -0.199
   CdOH+                 1.679e-009  1.498e-009    -8.775    -8.825    -0.050
   CdCl+                 5.382e-010  4.800e-010    -9.269    -9.319    -0.050
   Cd(OH)2               2.535e-014  2.542e-014   -13.596   -13.595     0.001
   CdCl2                 1.761e-016  1.766e-016   -15.754   -15.753     0.001
   Cd(OH)3-              1.011e-021  9.018e-022   -20.995   -21.045    -0.050
   CdCl3-                1.103e-023  9.834e-024   -22.958   -23.007    -0.050
   Cd(OH)4-2             4.014e-030  2.541e-030   -29.396   -29.595    -0.199
Cl              1.000e-007
   Cl-                   9.917e-008  8.825e-008    -7.004    -7.054    -0.051
   CdCl+                 5.382e-010  4.800e-010    -9.269    -9.319    -0.050
   PbCl+                 2.482e-010  2.214e-010    -9.605    -9.655    -0.050
   ZnCl+                 4.260e-011  3.799e-011   -10.371   -10.420    -0.050
   CdCl2                 1.761e-016  1.766e-016   -15.754   -15.753     0.001
   PbCl2                 3.087e-017  3.097e-017   -16.510   -16.509     0.001
   ZnCl2                 3.501e-018  3.511e-018   -17.456   -17.455     0.001
   CdCl3-                1.103e-023  9.834e-024   -22.958   -23.007    -0.050
   PbCl3-                2.434e-024  2.171e-024   -23.614   -23.663    -0.050
   ZnCl3-                3.898e-025  3.477e-025   -24.409   -24.459    -0.050
   PbCl4-2               1.449e-031  9.169e-032   -30.839   -31.038    -0.199
   ZnCl4-2               2.430e-032  1.538e-032   -31.614   -31.813    -0.199
H(0)            1.412e-022
   H2                    7.059e-023  7.079e-023   -22.151   -22.150     0.001
K               2.000e-003
   K+                    2.000e-003  1.780e-003    -2.699    -2.750    -0.051
   KOH                   1.945e-012  1.951e-012   -11.711   -11.710     0.001
Mg              7.500e-004
   Mg+2                  7.500e-004  4.861e-004    -3.125    -3.313    -0.188
   MgOH+                 6.255e-010  5.579e-010    -9.204    -9.253    -0.050
Na              6.000e-003
   Na+                   6.000e-003  5.359e-003    -2.222    -2.271    -0.049
   NaOH                  1.116e-011  1.119e-011   -10.952   -10.951     0.001
O(0)            0.000e+000
   O2                    0.000e+000  0.000e+000   -48.082   -48.080     0.001
Pb              1.000e-004
   Pb+2                  9.956e-005  6.301e-005    -4.002    -4.201    -0.199
   PbOH+                 4.354e-007  3.884e-007    -6.361    -6.411    -0.050
   Pb2OH+3               1.534e-009  5.479e-010    -8.814    -9.261    -0.447
   PbCl+                 2.482e-010  2.214e-010    -9.605    -9.655    -0.050
   Pb(OH)2               4.762e-011  4.776e-011   -10.322   -10.321     0.001
   Pb(OH)3-              1.944e-016  1.734e-016   -15.711   -15.761    -0.050
   PbCl2                 3.087e-017  3.097e-017   -16.510   -16.509     0.001
   Pb(OH)4-2             1.984e-022  1.255e-022   -21.703   -21.901    -0.199
   PbCl3-                2.434e-024  2.171e-024   -23.614   -23.663    -0.050
   PbCl4-2               1.449e-031  9.169e-032   -30.839   -31.038    -0.199
Zn              2.500e-004
   Zn+2                  2.499e-004  1.600e-004    -3.602    -3.796    -0.194
   ZnOH+                 6.216e-008  5.544e-008    -7.206    -7.256    -0.050
   Zn(OH)2               2.006e-010  2.012e-010    -9.698    -9.696     0.001
   ZnCl+                 4.260e-011  3.799e-011   -10.371   -10.420    -0.050
   Zn(OH)3-              2.255e-016  2.012e-016   -15.647   -15.696    -0.050
   ZnCl2                 3.501e-018  3.511e-018   -17.456   -17.455     0.001
   Zn(OH)4-2             1.592e-023  1.008e-023   -22.798   -22.997    -0.199
   ZnCl3-                3.898e-025  3.477e-025   -24.409   -24.459    -0.050
   ZnCl4-2               2.430e-032  1.538e-032   -31.614   -31.813    -0.199

------------------------------Saturation indices-------------------------------

	Phase               SI log IAP  log KT

	Al(OH)3(a)        1.18   11.98   10.80  Al(OH)3
	Cd(OH)2          -6.89    6.76   13.65  Cd(OH)2
	Gibbsite          3.87   11.98    8.11  Al(OH)3
	H2(g)           -18.96   24.04   43.00  H2
	H2O(g)           -1.51   -0.00    1.51  H2O
	Halite          -10.91   -9.33    1.58  NaCl
	O2(g)           -45.19  -48.08   -2.89  O2
	Pb(OH)2          -1.35    6.80    8.15  Pb(OH)2
	Zn(OH)2(e)       -4.30    7.20   11.50  Zn(OH)2

------------------
End of simulation.
------------------

------------------------------------
Reading input data for simulation 7.
------------------------------------

	MIX 5 
		1001	0.500000	
	 SAVE SOLUTION	5	 
	 END
-----------------------------------------
Beginning of batch-reaction calculations.
-----------------------------------------

Reaction step 1.

Using mix 5.	

Mixture 5.	

	 5.000e-001 Solution 1001	                                                       

-----------------------------Solution composition------------------------------

	Elements           Molality       Moles

	Al               5.000e-004  2.500e-004
	Br               1.115e-002  5.576e-003
	Ca               1.000e-007  5.000e-008
	Cd               9.000e-005  4.500e-005
	Cl               1.000e-007  5.000e-008
	K                2.000e-003  1.000e-003
	Mg               7.500e-004  3.750e-004
	Na               6.000e-003  3.000e-003
	Pb               1.000e-004  5.000e-005
	Zn               2.500e-004  1.250e-004

----------------------------Description of solution----------------------------

                                       pH  =   5.500      Charge balance
                                       pe  =   4.000      Adjusted to redox equilibrium
                        Activity of water  =   1.000
                           Ionic strength  =  1.272e-002
                       Mass of water (kg)  =  5.000e-001
                 Total alkalinity (eq/kg)  =  7.280e-004
                    Total carbon (mol/kg)  =  0.000e+000
                       Total CO2 (mol/kg)  =  0.000e+000
                      Temperature (deg C)  =  25.000
                  Electrical balance (eq)  = -3.527e-018
 Percent error, 100*(Cat-|An|)/(Cat+|An|)  =  -0.00
                               Iterations  =   0
                                  Total H  = 5.550658e+001
                                  Total O  = 2.775347e+001

----------------------------Distribution of species----------------------------

                                                   Log       Log         Log 
   Species                 Molality    Activity  Molality  Activity     Gamma

   H+                    3.492e-006  3.162e-006    -5.457    -5.500    -0.043
   OH-                   3.558e-009  3.165e-009    -8.449    -8.500    -0.051
   H2O                   5.551e+001  9.996e-001     1.744    -0.000     0.000
Al              5.000e-004
   Al(OH)2+              2.607e-004  2.325e-004    -3.584    -3.634    -0.050
   AlOH+2                1.483e-004  9.385e-005    -3.829    -4.028    -0.199
   Al+3                  7.298e-005  2.989e-005    -4.137    -4.524    -0.388
   Al(OH)3               1.080e-005  1.083e-005    -4.967    -4.965     0.001
   Al(OH)4-              7.234e-006  6.453e-006    -5.141    -5.190    -0.050
Br              1.115e-002
   Br-                   1.115e-002  9.901e-003    -1.953    -2.004    -0.052
Ca              1.000e-007
   Ca+2                  1.000e-007  6.431e-008    -7.000    -7.192    -0.192
   CaOH+                 3.782e-015  3.374e-015   -14.422   -14.472    -0.050
Cd              9.000e-005
   Cd+2                  9.000e-005  5.696e-005    -4.046    -4.244    -0.199
   CdOH+                 1.679e-009  1.498e-009    -8.775    -8.825    -0.050
   CdCl+                 5.382e-010  4.800e-010    -9.269    -9.319    -0.050
   Cd(OH)2               2.535e-014  2.542e-014   -13.596   -13.595     0.001
   CdCl2                 1.761e-016  1.766e-016   -15.754   -15.753     0.001
   Cd(OH)3-              1.011e-021  9.018e-022   -20.995   -21.045    -0.050
   CdCl3-                1.103e-023  9.834e-024   -22.958   -23.007    -0.050
   Cd(OH)4-2             4.014e-030  2.541e-030   -29.396   -29.595    -0.199
Cl              1.000e-007
   Cl-                   9.917e-008  8.825e-008    -7.004    -7.054    -0.051
   CdCl+                 5.382e-010  4.800e-010    -9.269    -9.319    -0.050
   PbCl+                 2.482e-010  2.214e-010    -9.605    -9.655    -0.050
   ZnCl+                 4.260e-011  3.799e-011   -10.371   -10.420    -0.050
   CdCl2                 1.761e-016  1.766e-016   -15.754   -15.753     0.001
   PbCl2                 3.087e-017  3.097e-017   -16.510   -16.509     0.001
   ZnCl2                 3.501e-018  3.511e-018   -17.456   -17.455     0.001
   CdCl3-                1.103e-023  9.834e-024   -22.958   -23.007    -0.050
   PbCl3-                2.434e-024  2.171e-024   -23.614   -23.663    -0.050
   ZnCl3-                3.898e-025  3.477e-025   -24.409   -24.459    -0.050
   PbCl4-2               1.449e-031  9.169e-032   -30.839   -31.038    -0.199
   ZnCl4-2               2.430e-032  1.538e-032   -31.614   -31.813    -0.199
H(0)            1.412e-022
   H2                    7.059e-023  7.079e-023   -22.151   -22.150     0.001
K               2.000e-003
   K+                    2.000e-003  1.780e-003    -2.699    -2.750    -0.051
   KOH                   1.945e-012  1.951e-012   -11.711   -11.710     0.001
Mg              7.500e-004
   Mg+2                  7.500e-004  4.861e-004    -3.125    -3.313    -0.188
   MgOH+                 6.255e-010  5.579e-010    -9.204    -9.253    -0.050
Na              6.000e-003
   Na+                   6.000e-003  5.359e-003    -2.222    -2.271    -0.049
   NaOH                  1.116e-011  1.119e-011   -10.952   -10.951     0.001
O(0)            0.000e+000
   O2                    0.000e+000  0.000e+000   -48.082   -48.080     0.001
Pb              1.000e-004
   Pb+2                  9.956e-005  6.301e-005    -4.002    -4.201    -0.199
   PbOH+                 4.354e-007  3.884e-007    -6.361    -6.411    -0.050
   Pb2OH+3               1.534e-009  5.479e-010    -8.814    -9.261    -0.447
   PbCl+                 2.482e-010  2.214e-010    -9.605    -9.655    -0.050
   Pb(OH)2               4.762e-011  4.776e-011   -10.322   -10.321     0.001
   Pb(OH)3-              1.944e-016  1.734e-016   -15.711   -15.761    -0.050
   PbCl2                 3.087e-017  3.097e-017   -16.510   -16.509     0.001
   Pb(OH)4-2             1.984e-022  1.255e-022   -21.703   -21.901    -0.199
   PbCl3-                2.434e-024  2.171e-024   -23.614   -23.663    -0.050
   PbCl4-2               1.449e-031  9.169e-032   -30.839   -31.038    -0.199
Zn              2.500e-004
   Zn+2                  2.499e-004  1.600e-004    -3.602    -3.796    -0.194
   ZnOH+                 6.216e-008  5.544e-008    -7.206    -7.256    -0.050
   Zn(OH)2               2.006e-010  2.012e-010    -9.698    -9.696     0.001
   ZnCl+                 4.260e-011  3.799e-011   -10.371   -10.420    -0.050
   Zn(OH)3-              2.255e-016  2.012e-016   -15.647   -15.696    -0.050
   ZnCl2                 3.501e-018  3.511e-018   -17.456   -17.455     0.001
   Zn(OH)4-2             1.592e-023  1.008e-023   -22.798   -22.997    -0.199
   ZnCl3-                3.898e-025  3.477e-025   -24.409   -24.459    -0.050
   ZnCl4-2               2.430e-032  1.538e-032   -31.614   -31.813    -0.199

------------------------------Saturation indices-------------------------------

	Phase               SI log IAP  log KT

	Al(OH)3(a)        1.18   11.98   10.80  Al(OH)3
	Cd(OH)2          -6.89    6.76   13.65  Cd(OH)2
	Gibbsite          3.87   11.98    8.11  Al(OH)3
	H2(g)           -18.96   24.04   43.00  H2
	H2O(g)           -1.51   -0.00    1.51  H2O
	Halite          -10.91   -9.33    1.58  NaCl
	O2(g)           -45.19  -48.08   -2.89  O2
	Pb(OH)2          -1.35    6.80    8.15  Pb(OH)2
	Zn(OH)2(e)       -4.30    7.20   11.50  Zn(OH)2

------------------
End of simulation.
------------------

------------------------------------
Reading input data for simulation 8.
------------------------------------

	MIX 6 
		1001	0.500000	
	 SAVE SOLUTION	6	 
	 END
-----------------------------------------
Beginning of batch-reaction calculations.
-----------------------------------------

Reaction step 1.

Using mix 6.	

Mixture 6.	

	 5.000e-001 Solution 1001	                                                       

-----------------------------Solution composition------------------------------

	Elements           Molality       Moles

	Al               5.000e-004  2.500e-004
	Br               1.115e-002  5.576e-003
	Ca               1.000e-007  5.000e-008
	Cd               9.000e-005  4.500e-005
	Cl               1.000e-007  5.000e-008
	K                2.000e-003  1.000e-003
	Mg               7.500e-004  3.750e-004
	Na               6.000e-003  3.000e-003
	Pb               1.000e-004  5.000e-005
	Zn               2.500e-004  1.250e-004

----------------------------Description of solution----------------------------

                                       pH  =   5.500      Charge balance
                                       pe  =   4.000      Adjusted to redox equilibrium
                        Activity of water  =   1.000
                           Ionic strength  =  1.272e-002
                       Mass of water (kg)  =  5.000e-001
                 Total alkalinity (eq/kg)  =  7.280e-004
                    Total carbon (mol/kg)  =  0.000e+000
                       Total CO2 (mol/kg)  =  0.000e+000
                      Temperature (deg C)  =  25.000
                  Electrical balance (eq)  = -3.527e-018
 Percent error, 100*(Cat-|An|)/(Cat+|An|)  =  -0.00
                               Iterations  =   0
                                  Total H  = 5.550658e+001
                                  Total O  = 2.775347e+001

----------------------------Distribution of species----------------------------

                                                   Log       Log         Log 
   Species                 Molality    Activity  Molality  Activity     Gamma

   H+                    3.492e-006  3.162e-006    -5.457    -5.500    -0.043
   OH-                   3.558e-009  3.165e-009    -8.449    -8.500    -0.051
   H2O                   5.551e+001  9.996e-001     1.744    -0.000     0.000
Al              5.000e-004
   Al(OH)2+              2.607e-004  2.325e-004    -3.584    -3.634    -0.050
   AlOH+2                1.483e-004  9.385e-005    -3.829    -4.028    -0.199
   Al+3                  7.298e-005  2.989e-005    -4.137    -4.524    -0.388
   Al(OH)3               1.080e-005  1.083e-005    -4.967    -4.965     0.001
   Al(OH)4-              7.234e-006  6.453e-006    -5.141    -5.190    -0.050
Br              1.115e-002
   Br-                   1.115e-002  9.901e-003    -1.953    -2.004    -0.052
Ca              1.000e-007
   Ca+2                  1.000e-007  6.431e-008    -7.000    -7.192    -0.192
   CaOH+                 3.782e-015  3.374e-015   -14.422   -14.472    -0.050
Cd              9.000e-005
   Cd+2                  9.000e-005  5.696e-005    -4.046    -4.244    -0.199
   CdOH+                 1.679e-009  1.498e-009    -8.775    -8.825    -0.050
   CdCl+                 5.382e-010  4.800e-010    -9.269    -9.319    -0.050
   Cd(OH)2               2.535e-014  2.542e-014   -13.596   -13.595     0.001
   CdCl2                 1.761e-016  1.766e-016   -15.754   -15.753     0.001
   Cd(OH)3-              1.011e-021  9.018e-022   -20.995   -21.045    -0.050
   CdCl3-                1.103e-023  9.834e-024   -22.958   -23.007    -0.050
   Cd(OH)4-2             4.014e-030  2.541e-030   -29.396   -29.595    -0.199
Cl              1.000e-007
   Cl-                   9.917e-008  8.825e-008    -7.004    -7.054    -0.051
   CdCl+                 5.382e-010  4.800e-010    -9.269    -9.319    -0.050
   PbCl+                 2.482e-010  2.214e-010    -9.605    -9.655    -0.050
   ZnCl+                 4.260e-011  3.799e-011   -10.371   -10.420    -0.050
   CdCl2                 1.761e-016  1.766e-016   -15.754   -15.753     0.001
   PbCl2                 3.087e-017  3.097e-017   -16.510   -16.509     0.001
   ZnCl2                 3.501e-018  3.511e-018   -17.456   -17.455     0.001
   CdCl3-                1.103e-023  9.834e-024   -22.958   -23.007    -0.050
   PbCl3-                2.434e-024  2.171e-024   -23.614   -23.663    -0.050
   ZnCl3-                3.898e-025  3.477e-025   -24.409   -24.459    -0.050
   PbCl4-2               1.449e-031  9.169e-032   -30.839   -31.038    -0.199
   ZnCl4-2               2.430e-032  1.538e-032   -31.614   -31.813    -0.199
H(0)            1.412e-022
   H2                    7.059e-023  7.079e-023   -22.151   -22.150     0.001
K               2.000e-003
   K+                    2.000e-003  1.780e-003    -2.699    -2.750    -0.051
   KOH                   1.945e-012  1.951e-012   -11.711   -11.710     0.001
Mg              7.500e-004
   Mg+2                  7.500e-004  4.861e-004    -3.125    -3.313    -0.188
   MgOH+                 6.255e-010  5.579e-010    -9.204    -9.253    -0.050
Na              6.000e-003
   Na+                   6.000e-003  5.359e-003    -2.222    -2.271    -0.049
   NaOH                  1.116e-011  1.119e-011   -10.952   -10.951     0.001
O(0)            0.000e+000
   O2                    0.000e+000  0.000e+000   -48.082   -48.080     0.001
Pb              1.000e-004
   Pb+2                  9.956e-005  6.301e-005    -4.002    -4.201    -0.199
   PbOH+                 4.354e-007  3.884e-007    -6.361    -6.411    -0.050
   Pb2OH+3               1.534e-009  5.479e-010    -8.814    -9.261    -0.447
   PbCl+                 2.482e-010  2.214e-010    -9.605    -9.655    -0.050
   Pb(OH)2               4.762e-011  4.776e-011   -10.322   -10.321     0.001
   Pb(OH)3-              1.944e-016  1.734e-016   -15.711   -15.761    -0.050
   PbCl2                 3.087e-017  3.097e-017   -16.510   -16.509     0.001
   Pb(OH)4-2             1.984e-022  1.255e-022   -21.703   -21.901    -0.199
   PbCl3-                2.434e-024  2.171e-024   -23.614   -23.663    -0.050
   PbCl4-2               1.449e-031  9.169e-032   -30.839   -31.038    -0.199
Zn              2.500e-004
   Zn+2                  2.499e-004  1.600e-004    -3.602    -3.796    -0.194
   ZnOH+                 6.216e-008  5.544e-008    -7.206    -7.256    -0.050
   Zn(OH)2               2.006e-010  2.012e-010    -9.698    -9.696     0.001
   ZnCl+                 4.260e-011  3.799e-011   -10.371   -10.420    -0.050
   Zn(OH)3-              2.255e-016  2.012e-016   -15.647   -15.696    -0.050
   ZnCl2                 3.501e-018  3.511e-018   -17.456   -17.455     0.001
   Zn(OH)4-2             1.592e-023  1.008e-023   -22.798   -22.997    -0.199
   ZnCl3-                3.898e-025  3.477e-025   -24.409   -24.459    -0.050
   ZnCl4-2               2.430e-032  1.538e-032   -31.614   -31.813    -0.199

------------------------------Saturation indices-------------------------------

	Phase               SI log IAP  log KT

	Al(OH)3(a)        1.18   11.98   10.80  Al(OH)3
	Cd(OH)2          -6.89    6.76   13.65  Cd(OH)2
	Gibbsite          3.87   11.98    8.11  Al(OH)3
	H2(g)           -18.96   24.04   43.00  H2
	H2O(g)           -1.51   -0.00    1.51  H2O
	Halite          -10.91   -9.33    1.58  NaCl
	O2(g)           -45.19  -48.08   -2.89  O2
	Pb(OH)2          -1.35    6.80    8.15  Pb(OH)2
	Zn(OH)2(e)       -4.30    7.20   11.50  Zn(OH)2

------------------
End of simulation.
------------------

------------------------------------
Reading input data for simulation 9.
------------------------------------

	MIX 7 
		1001	0.500000	
	 SAVE SOLUTION	7	 
	 END
-----------------------------------------
Beginning of batch-reaction calculations.
-----------------------------------------

Reaction step 1.

Using mix 7.	

Mixture 7.	

	 5.000e-001 Solution 1001	                                                       

-----------------------------Solution composition------------------------------

	Elements           Molality       Moles

	Al               5.000e-004  2.500e-004
	Br               1.115e-002  5.576e-003
	Ca               1.000e-007  5.000e-008
	Cd               9.000e-005  4.500e-005
	Cl               1.000e-007  5.000e-008
	K                2.000e-003  1.000e-003
	Mg               7.500e-004  3.750e-004
	Na               6.000e-003  3.000e-003
	Pb               1.000e-004  5.000e-005
	Zn               2.500e-004  1.250e-004

----------------------------Description of solution----------------------------

                                       pH  =   5.500      Charge balance
                                       pe  =   4.000      Adjusted to redox equilibrium
                        Activity of water  =   1.000
                           Ionic strength  =  1.272e-002
                       Mass of water (kg)  =  5.000e-001
                 Total alkalinity (eq/kg)  =  7.280e-004
                    Total carbon (mol/kg)  =  0.000e+000
                       Total CO2 (mol/kg)  =  0.000e+000
                      Temperature (deg C)  =  25.000
                  Electrical balance (eq)  = -3.527e-018
 Percent error, 100*(Cat-|An|)/(Cat+|An|)  =  -0.00
                               Iterations  =   0
                                  Total H  = 5.550658e+001
                                  Total O  = 2.775347e+001

----------------------------Distribution of species----------------------------

                                                   Log       Log         Log 
   Species                 Molality    Activity  Molality  Activity     Gamma

   H+                    3.492e-006  3.162e-006    -5.457    -5.500    -0.043
   OH-                   3.558e-009  3.165e-009    -8.449    -8.500    -0.051
   H2O                   5.551e+001  9.996e-001     1.744    -0.000     0.000
Al              5.000e-004
   Al(OH)2+              2.607e-004  2.325e-004    -3.584    -3.634    -0.050
   AlOH+2                1.483e-004  9.385e-005    -3.829    -4.028    -0.199
   Al+3                  7.298e-005  2.989e-005    -4.137    -4.524    -0.388
   Al(OH)3               1.080e-005  1.083e-005    -4.967    -4.965     0.001
   Al(OH)4-              7.234e-006  6.453e-006    -5.141    -5.190    -0.050
Br              1.115e-002
   Br-                   1.115e-002  9.901e-003    -1.953    -2.004    -0.052
Ca              1.000e-007
   Ca+2                  1.000e-007  6.431e-008    -7.000    -7.192    -0.192
   CaOH+                 3.782e-015  3.374e-015   -14.422   -14.472    -0.050
Cd              9.000e-005
   Cd+2                  9.000e-005  5.696e-005    -4.046    -4.244    -0.199
   CdOH+                 1.679e-009  1.498e-009    -8.775    -8.825    -0.050
   CdCl+                 5.382e-010  4.800e-010    -9.269    -9.319    -0.050
   Cd(OH)2               2.535e-014  2.542e-014   -13.596   -13.595     0.001
   CdCl2                 1.761e-016  1.766e-016   -15.754   -15.753     0.001
   Cd(OH)3-              1.011e-021  9.018e-022   -20.995   -21.045    -0.050
   CdCl3-                1.103e-023  9.834e-024   -22.958   -23.007    -0.050
   Cd(OH)4-2             4.014e-030  2.541e-030   -29.396   -29.595    -0.199
Cl              1.000e-007
   Cl-                   9.917e-008  8.825e-008    -7.004    -7.054    -0.051
   CdCl+                 5.382e-010  4.800e-010    -9.269    -9.319    -0.050
   PbCl+                 2.482e-010  2.214e-010    -9.605    -9.655    -0.050
   ZnCl+                 4.260e-011  3.799e-011   -10.371   -10.420    -0.050
   CdCl2                 1.761e-016  1.766e-016   -15.754   -15.753     0.001
   PbCl2                 3.087e-017  3.097e-017   -16.510   -16.509     0.001
   ZnCl2                 3.501e-018  3.511e-018   -17.456   -17.455     0.001
   CdCl3-                1.103e-023  9.834e-024   -22.958   -23.007    -0.050
   PbCl3-                2.434e-024  2.171e-024   -23.614   -23.663    -0.050
   ZnCl3-                3.898e-025  3.477e-025   -24.409   -24.459    -0.050
   PbCl4-2               1.449e-031  9.169e-032   -30.839   -31.038    -0.199
   ZnCl4-2               2.430e-032  1.538e-032   -31.614   -31.813    -0.199
H(0)            1.412e-022
   H2                    7.059e-023  7.079e-023   -22.151   -22.150     0.001
K               2.000e-003
   K+                    2.000e-003  1.780e-003    -2.699    -2.750    -0.051
   KOH                   1.945e-012  1.951e-012   -11.711   -11.710     0.001
Mg              7.500e-004
   Mg+2                  7.500e-004  4.861e-004    -3.125    -3.313    -0.188
   MgOH+                 6.255e-010  5.579e-010    -9.204    -9.253    -0.050
Na              6.000e-003
   Na+                   6.000e-003  5.359e-003    -2.222    -2.271    -0.049
   NaOH                  1.116e-011  1.119e-011   -10.952   -10.951     0.001
O(0)            0.000e+000
   O2                    0.000e+000  0.000e+000   -48.082   -48.080     0.001
Pb              1.000e-004
   Pb+2                  9.956e-005  6.301e-005    -4.002    -4.201    -0.199
   PbOH+                 4.354e-007  3.884e-007    -6.361    -6.411    -0.050
   Pb2OH+3               1.534e-009  5.479e-010    -8.814    -9.261    -0.447
   PbCl+                 2.482e-010  2.214e-010    -9.605    -9.655    -0.050
   Pb(OH)2               4.762e-011  4.776e-011   -10.322   -10.321     0.001
   Pb(OH)3-              1.944e-016  1.734e-016   -15.711   -15.761    -0.050
   PbCl2                 3.087e-017  3.097e-017   -16.510   -16.509     0.001
   Pb(OH)4-2             1.984e-022  1.255e-022   -21.703   -21.901    -0.199
   PbCl3-                2.434e-024  2.171e-024   -23.614   -23.663    -0.050
   PbCl4-2               1.449e-031  9.169e-032   -30.839   -31.038    -0.199
Zn              2.500e-004
   Zn+2                  2.499e-004  1.600e-004    -3.602    -3.796    -0.194
   ZnOH+                 6.216e-008  5.544e-008    -7.206    -7.256    -0.050
   Zn(OH)2               2.006e-010  2.012e-010    -9.698    -9.696     0.001
   ZnCl+                 4.260e-011  3.799e-011   -10.371   -10.420    -0.050
   Zn(OH)3-              2.255e-016  2.012e-016   -15.647   -15.696    -0.050
   ZnCl2                 3.501e-018  3.511e-018   -17.456   -17.455     0.001
   Zn(OH)4-2             1.592e-023  1.008e-023   -22.798   -22.997    -0.199
   ZnCl3-                3.898e-025  3.477e-025   -24.409   -24.459    -0.050
   ZnCl4-2               2.430e-032  1.538e-032   -31.614   -31.813    -0.199

------------------------------Saturation indices-------------------------------

	Phase               SI log IAP  log KT

	Al(OH)3(a)        1.18   11.98   10.80  Al(OH)3
	Cd(OH)2          -6.89    6.76   13.65  Cd(OH)2
	Gibbsite          3.87   11.98    8.11  Al(OH)3
	H2(g)           -18.96   24.04   43.00  H2
	H2O(g)           -1.51   -0.00    1.51  H2O
	Halite          -10.91   -9.33    1.58  NaCl
	O2(g)           -45.19  -48.08   -2.89  O2
	Pb(OH)2          -1.35    6.80    8.15  Pb(OH)2
	Zn(OH)2(e)       -4.30    7.20   11.50  Zn(OH)2

------------------
End of simulation.
------------------

-------------------------------------
Reading input data for simulation 10.
-------------------------------------

	MIX 8 
		1001	0.500000	
	 SAVE SOLUTION	8	 
	 END
-----------------------------------------
Beginning of batch-reaction calculations.
-----------------------------------------

Reaction step 1.

Using mix 8.	

Mixture 8.	

	 5.000e-001 Solution 1001	                                                       

-----------------------------Solution composition------------------------------

	Elements           Molality       Moles

	Al               5.000e-004  2.500e-004
	Br               1.115e-002  5.576e-003
	Ca               1.000e-007  5.000e-008
	Cd               9.000e-005  4.500e-005
	Cl               1.000e-007  5.000e-008
	K                2.000e-003  1.000e-003
	Mg               7.500e-004  3.750e-004
	Na               6.000e-003  3.000e-003
	Pb               1.000e-004  5.000e-005
	Zn               2.500e-004  1.250e-004

----------------------------Description of solution----------------------------

                                       pH  =   5.500      Charge balance
                                       pe  =   4.000      Adjusted to redox equilibrium
                        Activity of water  =   1.000
                           Ionic strength  =  1.272e-002
                       Mass of water (kg)  =  5.000e-001
                 Total alkalinity (eq/kg)  =  7.280e-004
                    Total carbon (mol/kg)  =  0.000e+000
                       Total CO2 (mol/kg)  =  0.000e+000
                      Temperature (deg C)  =  25.000
                  Electrical balance (eq)  = -3.527e-018
 Percent error, 100*(Cat-|An|)/(Cat+|An|)  =  -0.00
                               Iterations  =   0
                                  Total H  = 5.550658e+001
                                  Total O  = 2.775347e+001

----------------------------Distribution of species----------------------------

                                                   Log       Log         Log 
   Species                 Molality    Activity  Molality  Activity     Gamma

   H+                    3.492e-006  3.162e-006    -5.457    -5.500    -0.043
   OH-                   3.558e-009  3.165e-009    -8.449    -8.500    -0.051
   H2O                   5.551e+001  9.996e-001     1.744    -0.000     0.000
Al              5.000e-004
   Al(OH)2+              2.607e-004  2.325e-004    -3.584    -3.634    -0.050
   AlOH+2                1.483e-004  9.385e-005    -3.829    -4.028    -0.199
   Al+3                  7.298e-005  2.989e-005    -4.137    -4.524    -0.388
   Al(OH)3               1.080e-005  1.083e-005    -4.967    -4.965     0.001
   Al(OH)4-              7.234e-006  6.453e-006    -5.141    -5.190    -0.050
Br              1.115e-002
   Br-                   1.115e-002  9.901e-003    -1.953    -2.004    -0.052
Ca              1.000e-007
   Ca+2                  1.000e-007  6.431e-008    -7.000    -7.192    -0.192
   CaOH+                 3.782e-015  3.374e-015   -14.422   -14.472    -0.050
Cd              9.000e-005
   Cd+2                  9.000e-005  5.696e-005    -4.046    -4.244    -0.199
   CdOH+                 1.679e-009  1.498e-009    -8.775    -8.825    -0.050
   CdCl+                 5.382e-010  4.800e-010    -9.269    -9.319    -0.050
   Cd(OH)2               2.535e-014  2.542e-014   -13.596   -13.595     0.001
   CdCl2                 1.761e-016  1.766e-016   -15.754   -15.753     0.001
   Cd(OH)3-              1.011e-021  9.018e-022   -20.995   -21.045    -0.050
   CdCl3-                1.103e-023  9.834e-024   -22.958   -23.007    -0.050
   Cd(OH)4-2             4.014e-030  2.541e-030   -29.396   -29.595    -0.199
Cl              1.000e-007
   Cl-                   9.917e-008  8.825e-008    -7.004    -7.054    -0.051
   CdCl+                 5.382e-010  4.800e-010    -9.269    -9.319    -0.050
   PbCl+                 2.482e-010  2.214e-010    -9.605    -9.655    -0.050
   ZnCl+                 4.260e-011  3.799e-011   -10.371   -10.420    -0.050
   CdCl2                 1.761e-016  1.766e-016   -15.754   -15.753     0.001
   PbCl2                 3.087e-017  3.097e-017   -16.510   -16.509     0.001
   ZnCl2                 3.501e-018  3.511e-018   -17.456   -17.455     0.001
   CdCl3-                1.103e-023  9.834e-024   -22.958   -23.007    -0.050
   PbCl3-                2.434e-024  2.171e-024   -23.614   -23.663    -0.050
   ZnCl3-                3.898e-025  3.477e-025   -24.409   -24.459    -0.050
   PbCl4-2               1.449e-031  9.169e-032   -30.839   -31.038    -0.199
   ZnCl4-2               2.430e-032  1.538e-032   -31.614   -31.813    -0.199
H(0)            1.412e-022
   H2                    7.059e-023  7.079e-023   -22.151   -22.150     0.001
K               2.000e-003
   K+                    2.000e-003  1.780e-003    -2.699    -2.750    -0.051
   KOH                   1.945e-012  1.951e-012   -11.711   -11.710     0.001
Mg              7.500e-004
   Mg+2                  7.500e-004  4.861e-004    -3.125    -3.313    -0.188
   MgOH+                 6.255e-010  5.579e-010    -9.204    -9.253    -0.050
Na              6.000e-003
   Na+                   6.000e-003  5.359e-003    -2.222    -2.271    -0.049
   NaOH                  1.116e-011  1.119e-011   -10.952   -10.951     0.001
O(0)            0.000e+000
   O2                    0.000e+000  0.000e+000   -48.082   -48.080     0.001
Pb              1.000e-004
   Pb+2                  9.956e-005  6.301e-005    -4.002    -4.201    -0.199
   PbOH+                 4.354e-007  3.884e-007    -6.361    -6.411    -0.050
   Pb2OH+3               1.534e-009  5.479e-010    -8.814    -9.261    -0.447
   PbCl+                 2.482e-010  2.214e-010    -9.605    -9.655    -0.050
   Pb(OH)2               4.762e-011  4.776e-011   -10.322   -10.321     0.001
   Pb(OH)3-              1.944e-016  1.734e-016   -15.711   -15.761    -0.050
   PbCl2                 3.087e-017  3.097e-017   -16.510   -16.509     0.001
   Pb(OH)4-2             1.984e-022  1.255e-022   -21.703   -21.901    -0.199
   PbCl3-                2.434e-024  2.171e-024   -23.614   -23.663    -0.050
   PbCl4-2               1.449e-031  9.169e-032   -30.839   -31.038    -0.199
Zn              2.500e-004
   Zn+2                  2.499e-004  1.600e-004    -3.602    -3.796    -0.194
   ZnOH+                 6.216e-008  5.544e-008    -7.206    -7.256    -0.050
   Zn(OH)2               2.006e-010  2.012e-010    -9.698    -9.696     0.001
   ZnCl+                 4.260e-011  3.799e-011   -10.371   -10.420    -0.050
   Zn(OH)3-              2.255e-016  2.012e-016   -15.647   -15.696    -0.050
   ZnCl2                 3.501e-018  3.511e-018   -17.456   -17.455     0.001
   Zn(OH)4-2             1.592e-023  1.008e-023   -22.798   -22.997    -0.199
   ZnCl3-                3.898e-025  3.477e-025   -24.409   -24.459    -0.050
   ZnCl4-2               2.430e-032  1.538e-032   -31.614   -31.813    -0.199

------------------------------Saturation indices-------------------------------

	Phase               SI log IAP  log KT

	Al(OH)3(a)        1.18   11.98   10.80  Al(OH)3
	Cd(OH)2          -6.89    6.76   13.65  Cd(OH)2
	Gibbsite          3.87   11.98    8.11  Al(OH)3
	H2(g)           -18.96   24.04   43.00  H2
	H2O(g)           -1.51   -0.00    1.51  H2O
	Halite          -10.91   -9.33    1.58  NaCl
	O2(g)           -45.19  -48.08   -2.89  O2
	Pb(OH)2          -1.35    6.80    8.15  Pb(OH)2
	Zn(OH)2(e)       -4.30    7.20   11.50  Zn(OH)2

------------------
End of simulation.
------------------

-------------------------------------
Reading input data for simulation 11.
-------------------------------------

	MIX 9 
		1001	0.500000	
	 SAVE SOLUTION	9	 
	 END
-----------------------------------------
Beginning of batch-reaction calculations.
-----------------------------------------

Reaction step 1.

Using mix 9.	

Mixture 9.	

	 5.000e-001 Solution 1001	                                                       

-----------------------------Solution composition------------------------------

	Elements           Molality       Moles

	Al               5.000e-004  2.500e-004
	Br               1.115e-002  5.576e-003
	Ca               1.000e-007  5.000e-008
	Cd               9.000e-005  4.500e-005
	Cl               1.000e-007  5.000e-008
	K                2.000e-003  1.000e-003
	Mg               7.500e-004  3.750e-004
	Na               6.000e-003  3.000e-003
	Pb               1.000e-004  5.000e-005
	Zn               2.500e-004  1.250e-004

----------------------------Description of solution----------------------------

                                       pH  =   5.500      Charge balance
                                       pe  =   4.000      Adjusted to redox equilibrium
                        Activity of water  =   1.000
                           Ionic strength  =  1.272e-002
                       Mass of water (kg)  =  5.000e-001
                 Total alkalinity (eq/kg)  =  7.280e-004
                    Total carbon (mol/kg)  =  0.000e+000
                       Total CO2 (mol/kg)  =  0.000e+000
                      Temperature (deg C)  =  25.000
                  Electrical balance (eq)  = -3.527e-018
 Percent error, 100*(Cat-|An|)/(Cat+|An|)  =  -0.00
                               Iterations  =   0
                                  Total H  = 5.550658e+001
                                  Total O  = 2.775347e+001

----------------------------Distribution of species----------------------------

                                                   Log       Log         Log 
   Species                 Molality    Activity  Molality  Activity     Gamma

   H+                    3.492e-006  3.162e-006    -5.457    -5.500    -0.043
   OH-                   3.558e-009  3.165e-009    -8.449    -8.500    -0.051
   H2O                   5.551e+001  9.996e-001     1.744    -0.000     0.000
Al              5.000e-004
   Al(OH)2+              2.607e-004  2.325e-004    -3.584    -3.634    -0.050
   AlOH+2                1.483e-004  9.385e-005    -3.829    -4.028    -0.199
   Al+3                  7.298e-005  2.989e-005    -4.137    -4.524    -0.388
   Al(OH)3               1.080e-005  1.083e-005    -4.967    -4.965     0.001
   Al(OH)4-              7.234e-006  6.453e-006    -5.141    -5.190    -0.050
Br              1.115e-002
   Br-                   1.115e-002  9.901e-003    -1.953    -2.004    -0.052
Ca              1.000e-007
   Ca+2                  1.000e-007  6.431e-008    -7.000    -7.192    -0.192
   CaOH+                 3.782e-015  3.374e-015   -14.422   -14.472    -0.050
Cd              9.000e-005
   Cd+2                  9.000e-005  5.696e-005    -4.046    -4.244    -0.199
   CdOH+                 1.679e-009  1.498e-009    -8.775    -8.825    -0.050
   CdCl+                 5.382e-010  4.800e-010    -9.269    -9.319    -0.050
   Cd(OH)2               2.535e-014  2.542e-014   -13.596   -13.595     0.001
   CdCl2                 1.761e-016  1.766e-016   -15.754   -15.753     0.001
   Cd(OH)3-              1.011e-021  9.018e-022   -20.995   -21.045    -0.050
   CdCl3-                1.103e-023  9.834e-024   -22.958   -23.007    -0.050
   Cd(OH)4-2             4.014e-030  2.541e-030   -29.396   -29.595    -0.199
Cl              1.000e-007
   Cl-                   9.917e-008  8.825e-008    -7.004    -7.054    -0.051
   CdCl+                 5.382e-010  4.800e-010    -9.269    -9.319    -0.050
   PbCl+                 2.482e-010  2.214e-010    -9.605    -9.655    -0.050
   ZnCl+                 4.260e-011  3.799e-011   -10.371   -10.420    -0.050
   CdCl2                 1.761e-016  1.766e-016   -15.754   -15.753     0.001
   PbCl2                 3.087e-017  3.097e-017   -16.510   -16.509     0.001
   ZnCl2                 3.501e-018  3.511e-018   -17.456   -17.455     0.001
   CdCl3-                1.103e-023  9.834e-024   -22.958   -23.007    -0.050
   PbCl3-                2.434e-024  2.171e-024   -23.614   -23.663    -0.050
   ZnCl3-                3.898e-025  3.477e-025   -24.409   -24.459    -0.050
   PbCl4-2               1.449e-031  9.169e-032   -30.839   -31.038    -0.199
   ZnCl4-2               2.430e-032  1.538e-032   -31.614   -31.813    -0.199
H(0)            1.412e-022
   H2                    7.059e-023  7.079e-023   -22.151   -22.150     0.001
K               2.000e-003
   K+                    2.000e-003  1.780e-003    -2.699    -2.750    -0.051
   KOH                   1.945e-012  1.951e-012   -11.711   -11.710     0.001
Mg              7.500e-004
   Mg+2                  7.500e-004  4.861e-004    -3.125    -3.313    -0.188
   MgOH+                 6.255e-010  5.579e-010    -9.204    -9.253    -0.050
Na              6.000e-003
   Na+                   6.000e-003  5.359e-003    -2.222    -2.271    -0.049
   NaOH                  1.116e-011  1.119e-011   -10.952   -10.951     0.001
O(0)            0.000e+000
   O2                    0.000e+000  0.000e+000   -48.082   -48.080     0.001
Pb              1.000e-004
   Pb+2                  9.956e-005  6.301e-005    -4.002    -4.201    -0.199
   PbOH+                 4.354e-007  3.884e-007    -6.361    -6.411    -0.050
   Pb2OH+3               1.534e-009  5.479e-010    -8.814    -9.261    -0.447
[...]
------------------

-------------------------------------
Reading input data for simulation 42.
-------------------------------------

	MIX 40 
		1001	0.500000	
	 SAVE SOLUTION	40	 
	 END
-----------------------------------------
Beginning of batch-reaction calculations.
-----------------------------------------

Reaction step 1.

Using mix 40.	

Mixture 40.	

	 5.000e-001 Solution 1001	                                                       

-----------------------------Solution composition------------------------------

	Elements           Molality       Moles

	Al               5.000e-004  2.500e-004
	Br               1.115e-002  5.576e-003
	Ca               1.000e-007  5.000e-008
	Cd               9.000e-005  4.500e-005
	Cl               1.000e-007  5.000e-008
	K                2.000e-003  1.000e-003
	Mg               7.500e-004  3.750e-004
	Na               6.000e-003  3.000e-003
	Pb               1.000e-004  5.000e-005
	Zn               2.500e-004  1.250e-004

----------------------------Description of solution----------------------------

                                       pH  =   5.500      Charge balance
                                       pe  =   4.000      Adjusted to redox equilibrium
                        Activity of water  =   1.000
                           Ionic strength  =  1.272e-002
                       Mass of water (kg)  =  5.000e-001
                 Total alkalinity (eq/kg)  =  7.280e-004
                    Total carbon (mol/kg)  =  0.000e+000
                       Total CO2 (mol/kg)  =  0.000e+000
                      Temperature (deg C)  =  25.000
                  Electrical balance (eq)  = -3.527e-018
 Percent error, 100*(Cat-|An|)/(Cat+|An|)  =  -0.00
                               Iterations  =   0
                                  Total H  = 5.550658e+001
                                  Total O  = 2.775347e+001

----------------------------Distribution of species----------------------------

                                                   Log       Log         Log 
   Species                 Molality    Activity  Molality  Activity     Gamma

   H+                    3.492e-006  3.162e-006    -5.457    -5.500    -0.043
   OH-                   3.558e-009  3.165e-009    -8.449    -8.500    -0.051
   H2O                   5.551e+001  9.996e-001     1.744    -0.000     0.000
Al              5.000e-004
   Al(OH)2+              2.607e-004  2.325e-004    -3.584    -3.634    -0.050
   AlOH+2                1.483e-004  9.385e-005    -3.829    -4.028    -0.199
   Al+3                  7.298e-005  2.989e-005    -4.137    -4.524    -0.388
   Al(OH)3               1.080e-005  1.083e-005    -4.967    -4.965     0.001
   Al(OH)4-              7.234e-006  6.453e-006    -5.141    -5.190    -0.050
Br              1.115e-002
   Br-                   1.115e-002  9.901e-003    -1.953    -2.004    -0.052
Ca              1.000e-007
   Ca+2                  1.000e-007  6.431e-008    -7.000    -7.192    -0.192
   CaOH+                 3.782e-015  3.374e-015   -14.422   -14.472    -0.050
Cd              9.000e-005
   Cd+2                  9.000e-005  5.696e-005    -4.046    -4.244    -0.199
   CdOH+                 1.679e-009  1.498e-009    -8.775    -8.825    -0.050
   CdCl+                 5.382e-010  4.800e-010    -9.269    -9.319    -0.050
   Cd(OH)2               2.535e-014  2.542e-014   -13.596   -13.595     0.001
   CdCl2                 1.761e-016  1.766e-016   -15.754   -15.753     0.001
   Cd(OH)3-              1.011e-021  9.018e-022   -20.995   -21.045    -0.050
   CdCl3-                1.103e-023  9.834e-024   -22.958   -23.007    -0.050
   Cd(OH)4-2             4.014e-030  2.541e-030   -29.396   -29.595    -0.199
Cl              1.000e-007
   Cl-                   9.917e-008  8.825e-008    -7.004    -7.054    -0.051
   CdCl+                 5.382e-010  4.800e-010    -9.269    -9.319    -0.050
   PbCl+                 2.482e-010  2.214e-010    -9.605    -9.655    -0.050
   ZnCl+                 4.260e-011  3.799e-011   -10.371   -10.420    -0.050
   CdCl2                 1.761e-016  1.766e-016   -15.754   -15.753     0.001
   PbCl2                 3.087e-017  3.097e-017   -16.510   -16.509     0.001
   ZnCl2                 3.501e-018  3.511e-018   -17.456   -17.455     0.001
   CdCl3-                1.103e-023  9.834e-024   -22.958   -23.007    -0.050
   PbCl3-                2.434e-024  2.171e-024   -23.614   -23.663    -0.050
   ZnCl3-                3.898e-025  3.477e-025   -24.409   -24.459    -0.050
   PbCl4-2               1.449e-031  9.169e-032   -30.839   -31.038    -0.199
   ZnCl4-2               2.430e-032  1.538e-032   -31.614   -31.813    -0.199
H(0)            1.412e-022
   H2                    7.059e-023  7.079e-023   -22.151   -22.150     0.001
K               2.000e-003
   K+                    2.000e-003  1.780e-003    -2.699    -2.750    -0.051
   KOH                   1.945e-012  1.951e-012   -11.711   -11.710     0.001
Mg              7.500e-004
   Mg+2                  7.500e-004  4.861e-004    -3.125    -3.313    -0.188
   MgOH+                 6.255e-010  5.579e-010    -9.204    -9.253    -0.050
Na              6.000e-003
   Na+                   6.000e-003  5.359e-003    -2.222    -2.271    -0.049
   NaOH                  1.116e-011  1.119e-011   -10.952   -10.951     0.001
O(0)            0.000e+000
   O2                    0.000e+000  0.000e+000   -48.082   -48.080     0.001
Pb              1.000e-004
   Pb+2                  9.956e-005  6.301e-005    -4.002    -4.201    -0.199
   PbOH+                 4.354e-007  3.884e-007    -6.361    -6.411    -0.050
   Pb2OH+3               1.534e-009  5.479e-010    -8.814    -9.261    -0.447
   PbCl+                 2.482e-010  2.214e-010    -9.605    -9.655    -0.050
   Pb(OH)2               4.762e-011  4.776e-011   -10.322   -10.321     0.001
   Pb(OH)3-              1.944e-016  1.734e-016   -15.711   -15.761    -0.050
   PbCl2                 3.087e-017  3.097e-017   -16.510   -16.509     0.001
   Pb(OH)4-2             1.984e-022  1.255e-022   -21.703   -21.901    -0.199
   PbCl3-                2.434e-024  2.171e-024   -23.614   -23.663    -0.050
   PbCl4-2               1.449e-031  9.169e-032   -30.839   -31.038    -0.199
Zn              2.500e-004
   Zn+2                  2.499e-004  1.600e-004    -3.602    -3.796    -0.194
   ZnOH+                 6.216e-008  5.544e-008    -7.206    -7.256    -0.050
   Zn(OH)2               2.006e-010  2.012e-010    -9.698    -9.696     0.001
   ZnCl+                 4.260e-011  3.799e-011   -10.371   -10.420    -0.050
   Zn(OH)3-              2.255e-016  2.012e-016   -15.647   -15.696    -0.050
   ZnCl2                 3.501e-018  3.511e-018   -17.456   -17.455     0.001
   Zn(OH)4-2             1.592e-023  1.008e-023   -22.798   -22.997    -0.199
   ZnCl3-                3.898e-025  3.477e-025   -24.409   -24.459    -0.050
   ZnCl4-2               2.430e-032  1.538e-032   -31.614   -31.813    -0.199

------------------------------Saturation indices-------------------------------

	Phase               SI log IAP  log KT

	Al(OH)3(a)        1.18   11.98   10.80  Al(OH)3
	Cd(OH)2          -6.89    6.76   13.65  Cd(OH)2
	Gibbsite          3.87   11.98    8.11  Al(OH)3
	H2(g)           -18.96   24.04   43.00  H2
	H2O(g)           -1.51   -0.00    1.51  H2O
	Halite          -10.91   -9.33    1.58  NaCl
	O2(g)           -45.19  -48.08   -2.89  O2
	Pb(OH)2          -1.35    6.80    8.15  Pb(OH)2
	Zn(OH)2(e)       -4.30    7.20   11.50  Zn(OH)2

------------------
End of simulation.
------------------

-------------------------------------
Reading input data for simulation 43.
-------------------------------------

	MIX 41 
		1001	0.500000	
	 SAVE SOLUTION	41	 
	 END
-----------------------------------------
Beginning of batch-reaction calculations.
-----------------------------------------

Reaction step 1.

Using mix 41.	

Mixture 41.	

	 5.000e-001 Solution 1001	                                                       

-----------------------------Solution composition------------------------------

	Elements           Molality       Moles

	Al               5.000e-004  2.500e-004
	Br               1.115e-002  5.576e-003
	Ca               1.000e-007  5.000e-008
	Cd               9.000e-005  4.500e-005
	Cl               1.000e-007  5.000e-008
	K                2.000e-003  1.000e-003
	Mg               7.500e-004  3.750e-004
	Na               6.000e-003  3.000e-003
	Pb               1.000e-004  5.000e-005
	Zn               2.500e-004  1.250e-004

----------------------------Description of solution----------------------------

                                       pH  =   5.500      Charge balance
                                       pe  =   4.000      Adjusted to redox equilibrium
                        Activity of water  =   1.000
                           Ionic strength  =  1.272e-002
                       Mass of water (kg)  =  5.000e-001
                 Total alkalinity (eq/kg)  =  7.280e-004
                    Total carbon (mol/kg)  =  0.000e+000
                       Total CO2 (mol/kg)  =  0.000e+000
                      Temperature (deg C)  =  25.000
                  Electrical balance (eq)  = -3.527e-018
 Percent error, 100*(Cat-|An|)/(Cat+|An|)  =  -0.00
                               Iterations  =   0
                                  Total H  = 5.550658e+001
                                  Total O  = 2.775347e+001

----------------------------Distribution of species----------------------------

                                                   Log       Log         Log 
   Species                 Molality    Activity  Molality  Activity     Gamma

   H+                    3.492e-006  3.162e-006    -5.457    -5.500    -0.043
   OH-                   3.558e-009  3.165e-009    -8.449    -8.500    -0.051
   H2O                   5.551e+001  9.996e-001     1.744    -0.000     0.000
Al              5.000e-004
   Al(OH)2+              2.607e-004  2.325e-004    -3.584    -3.634    -0.050
   AlOH+2                1.483e-004  9.385e-005    -3.829    -4.028    -0.199
   Al+3                  7.298e-005  2.989e-005    -4.137    -4.524    -0.388
   Al(OH)3               1.080e-005  1.083e-005    -4.967    -4.965     0.001
   Al(OH)4-              7.234e-006  6.453e-006    -5.141    -5.190    -0.050
Br              1.115e-002
   Br-                   1.115e-002  9.901e-003    -1.953    -2.004    -0.052
Ca              1.000e-007
   Ca+2                  1.000e-007  6.431e-008    -7.000    -7.192    -0.192
   CaOH+                 3.782e-015  3.374e-015   -14.422   -14.472    -0.050
Cd              9.000e-005
   Cd+2                  9.000e-005  5.696e-005    -4.046    -4.244    -0.199
   CdOH+                 1.679e-009  1.498e-009    -8.775    -8.825    -0.050
   CdCl+                 5.382e-010  4.800e-010    -9.269    -9.319    -0.050
   Cd(OH)2               2.535e-014  2.542e-014   -13.596   -13.595     0.001
   CdCl2                 1.761e-016  1.766e-016   -15.754   -15.753     0.001
   Cd(OH)3-              1.011e-021  9.018e-022   -20.995   -21.045    -0.050
   CdCl3-                1.103e-023  9.834e-024   -22.958   -23.007    -0.050
   Cd(OH)4-2             4.014e-030  2.541e-030   -29.396   -29.595    -0.199
Cl              1.000e-007
   Cl-                   9.917e-008  8.825e-008    -7.004    -7.054    -0.051
   CdCl+                 5.382e-010  4.800e-010    -9.269    -9.319    -0.050
   PbCl+                 2.482e-010  2.214e-010    -9.605    -9.655    -0.050
   ZnCl+                 4.260e-011  3.799e-011   -10.371   -10.420    -0.050
   CdCl2                 1.761e-016  1.766e-016   -15.754   -15.753     0.001
   PbCl2                 3.087e-017  3.097e-017   -16.510   -16.509     0.001
   ZnCl2                 3.501e-018  3.511e-018   -17.456   -17.455     0.001
   CdCl3-                1.103e-023  9.834e-024   -22.958   -23.007    -0.050
   PbCl3-                2.434e-024  2.171e-024   -23.614   -23.663    -0.050
   ZnCl3-                3.898e-025  3.477e-025   -24.409   -24.459    -0.050
   PbCl4-2               1.449e-031  9.169e-032   -30.839   -31.038    -0.199
   ZnCl4-2               2.430e-032  1.538e-032   -31.614   -31.813    -0.199
H(0)            1.412e-022
   H2                    7.059e-023  7.079e-023   -22.151   -22.150     0.001
K               2.000e-003
   K+                    2.000e-003  1.780e-003    -2.699    -2.750    -0.051
   KOH                   1.945e-012  1.951e-012   -11.711   -11.710     0.001
Mg              7.500e-004
   Mg+2                  7.500e-004  4.861e-004    -3.125    -3.313    -0.188
   MgOH+                 6.255e-010  5.579e-010    -9.204    -9.253    -0.050
Na              6.000e-003
   Na+                   6.000e-003  5.359e-003    -2.222    -2.271    -0.049
   NaOH                  1.116e-011  1.119e-011   -10.952   -10.951     0.001
O(0)            0.000e+000
   O2                    0.000e+000  0.000e+000   -48.082   -48.080     0.001
Pb              1.000e-004
   Pb+2                  9.956e-005  6.301e-005    -4.002    -4.201    -0.199
   PbOH+                 4.354e-007  3.884e-007    -6.361    -6.411    -0.050
   Pb2OH+3               1.534e-009  5.479e-010    -8.814    -9.261    -0.447
   PbCl+                 2.482e-010  2.214e-010    -9.605    -9.655    -0.050
   Pb(OH)2               4.762e-011  4.776e-011   -10.322   -10.321     0.001
   Pb(OH)3-              1.944e-016  1.734e-016   -15.711   -15.761    -0.050
   PbCl2                 3.087e-017  3.097e-017   -16.510   -16.509     0.001
   Pb(OH)4-2             1.984e-022  1.255e-022   -21.703   -21.901    -0.199
   PbCl3-                2.434e-024  2.171e-024   -23.614   -23.663    -0.050
   PbCl4-2               1.449e-031  9.169e-032   -30.839   -31.038    -0.199
Zn              2.500e-004
   Zn+2                  2.499e-004  1.600e-004    -3.602    -3.796    -0.194
   ZnOH+                 6.216e-008  5.544e-008    -7.206    -7.256    -0.050
   Zn(OH)2               2.006e-010  2.012e-010    -9.698    -9.696     0.001
   ZnCl+                 4.260e-011  3.799e-011   -10.371   -10.420    -0.050
   Zn(OH)3-              2.255e-016  2.012e-016   -15.647   -15.696    -0.050
   ZnCl2                 3.501e-018  3.511e-018   -17.456   -17.455     0.001
   Zn(OH)4-2             1.592e-023  1.008e-023   -22.798   -22.997    -0.199
   ZnCl3-                3.898e-025  3.477e-025   -24.409   -24.459    -0.050
   ZnCl4-2               2.430e-032  1.538e-032   -31.614   -31.813    -0.199

------------------------------Saturation indices-------------------------------

	Phase               SI log IAP  log KT

	Al(OH)3(a)        1.18   11.98   10.80  Al(OH)3
	Cd(OH)2          -6.89    6.76   13.65  Cd(OH)2
	Gibbsite          3.87   11.98    8.11  Al(OH)3
	H2(g)           -18.96   24.04   43.00  H2
	H2O(g)           -1.51   -0.00    1.51  H2O
	Halite          -10.91   -9.33    1.58  NaCl
	O2(g)           -45.19  -48.08   -2.89  O2
	Pb(OH)2          -1.35    6.80    8.15  Pb(OH)2
	Zn(OH)2(e)       -4.30    7.20   11.50  Zn(OH)2

------------------
End of simulation.
------------------

-------------------------------------
Reading input data for simulation 44.
-------------------------------------

	EXCHANGE 1-41
	  equilibrate 1001
	   X                0.011
	PRINT
	 reset false
	 warnings 500
	TRANSPORT
	 cells 41
	 gnuplot true


--------------------------------
Printing G N U P L O T templates
--------------------------------

  Printing G N U P L O T template file: C:\ussl\HYDRUS-1D v4\Examples\HP1\CATEXCH\ts_pH.plt
  Printing G N U P L O T template file: C:\ussl\HYDRUS-1D v4\Examples\HP1\CATEXCH\pd_pH.plt
  Printing G N U P L O T template file: C:\ussl\HYDRUS-1D v4\Examples\HP1\CATEXCH\ts_pe.plt
  Printing G N U P L O T template file: C:\ussl\HYDRUS-1D v4\Examples\HP1\CATEXCH\pd_pe.plt
  Printing G N U P L O T template file: C:\ussl\HYDRUS-1D v4\Examples\HP1\CATEXCH\ts_tot_Cl.plt
  Printing G N U P L O T template file: C:\ussl\HYDRUS-1D v4\Examples\HP1\CATEXCH\pd_tot_Cl.plt
  Printing G N U P L O T template file: C:\ussl\HYDRUS-1D v4\Examples\HP1\CATEXCH\ts_tot_Ca.plt
  Printing G N U P L O T template file: C:\ussl\HYDRUS-1D v4\Examples\HP1\CATEXCH\pd_tot_Ca.plt
  Printing G N U P L O T template file: C:\ussl\HYDRUS-1D v4\Examples\HP1\CATEXCH\ts_tot_Mg.plt
  Printing G N U P L O T template file: C:\ussl\HYDRUS-1D v4\Examples\HP1\CATEXCH\pd_tot_Mg.plt
  Printing G N U P L O T template file: C:\ussl\HYDRUS-1D v4\Examples\HP1\CATEXCH\ts_tot_Na.plt
  Printing G N U P L O T template file: C:\ussl\HYDRUS-1D v4\Examples\HP1\CATEXCH\pd_tot_Na.plt
  Printing G N U P L O T template file: C:\ussl\HYDRUS-1D v4\Examples\HP1\CATEXCH\ts_tot_K.plt
  Printing G N U P L O T template file: C:\ussl\HYDRUS-1D v4\Examples\HP1\CATEXCH\pd_tot_K.plt
  Printing G N U P L O T template file: C:\ussl\HYDRUS-1D v4\Examples\HP1\CATEXCH\ts_tot_Al.plt
  Printing G N U P L O T template file: C:\ussl\HYDRUS-1D v4\Examples\HP1\CATEXCH\pd_tot_Al.plt
  Printing G N U P L O T template file: C:\ussl\HYDRUS-1D v4\Examples\HP1\CATEXCH\ts_tot_Br.plt
  Printing G N U P L O T template file: C:\ussl\HYDRUS-1D v4\Examples\HP1\CATEXCH\pd_tot_Br.plt
  Printing G N U P L O T template file: C:\ussl\HYDRUS-1D v4\Examples\HP1\CATEXCH\ts_tot_Cd.plt
  Printing G N U P L O T template file: C:\ussl\HYDRUS-1D v4\Examples\HP1\CATEXCH\pd_tot_Cd.plt
  Printing G N U P L O T template file: C:\ussl\HYDRUS-1D v4\Examples\HP1\CATEXCH\ts_tot_Zn.plt
  Printing G N U P L O T template file: C:\ussl\HYDRUS-1D v4\Examples\HP1\CATEXCH\pd_tot_Zn.plt
  Printing G N U P L O T template file: C:\ussl\HYDRUS-1D v4\Examples\HP1\CATEXCH\ts_tot_Pb.plt
  Printing G N U P L O T template file: C:\ussl\HYDRUS-1D v4\Examples\HP1\CATEXCH\pd_tot_Pb.plt
  Printing G N U P L O T template file: C:\ussl\HYDRUS-1D v4\Examples\HP1\CATEXCH\ts_tot_C.plt
  Printing G N U P L O T template file: C:\ussl\HYDRUS-1D v4\Examples\HP1\CATEXCH\pd_tot_C.plt
  Printing G N U P L O T template file: C:\ussl\HYDRUS-1D v4\Examples\HP1\CATEXCH\ts_mol_CaX2.plt
  Printing G N U P L O T template file: C:\ussl\HYDRUS-1D v4\Examples\HP1\CATEXCH\pd_mol_CaX2.plt
  Printing G N U P L O T template file: C:\ussl\HYDRUS-1D v4\Examples\HP1\CATEXCH\ts_mol_MgX2.plt
  Printing G N U P L O T template file: C:\ussl\HYDRUS-1D v4\Examples\HP1\CATEXCH\pd_mol_MgX2.plt
  Printing G N U P L O T template file: C:\ussl\HYDRUS-1D v4\Examples\HP1\CATEXCH\ts_mol_NaX.plt
  Printing G N U P L O T template file: C:\ussl\HYDRUS-1D v4\Examples\HP1\CATEXCH\pd_mol_NaX.plt
  Printing G N U P L O T template file: C:\ussl\HYDRUS-1D v4\Examples\HP1\CATEXCH\ts_mol_KX.plt
  Printing G N U P L O T template file: C:\ussl\HYDRUS-1D v4\Examples\HP1\CATEXCH\pd_mol_KX.plt
  Printing G N U P L O T template file: C:\ussl\HYDRUS-1D v4\Examples\HP1\CATEXCH\ts_mol_AlX3.plt
  Printing G N U P L O T template file: C:\ussl\HYDRUS-1D v4\Examples\HP1\CATEXCH\pd_mol_AlX3.plt
  Printing G N U P L O T template file: C:\ussl\HYDRUS-1D v4\Examples\HP1\CATEXCH\ts_mol_CdX2.plt
  Printing G N U P L O T template file: C:\ussl\HYDRUS-1D v4\Examples\HP1\CATEXCH\pd_mol_CdX2.plt
  Printing G N U P L O T template file: C:\ussl\HYDRUS-1D v4\Examples\HP1\CATEXCH\ts_mol_ZnX2.plt
  Printing G N U P L O T template file: C:\ussl\HYDRUS-1D v4\Examples\HP1\CATEXCH\pd_mol_ZnX2.plt
  Printing G N U P L O T template file: C:\ussl\HYDRUS-1D v4\Examples\HP1\CATEXCH\ts_mol_PbX2.plt
  Printing G N U P L O T template file: C:\ussl\HYDRUS-1D v4\Examples\HP1\CATEXCH\pd_mol_PbX2.plt


--------------------------------
STARTING TRANSPORT CALCULATIONS
--------------------------------

