-----------------------------
VERSION AND FILE INFORMATION.
-----------------------------

HP1-2.1.002 based on PHREEQC-2.15.0-2697 and HYDRUS1D-4.0 (released on November 02, 2009).

PROJECT FOLDER: C:\ussl\HYDRUS-1D v4\Examples\HP1\SEASONCHAIN
    INPUT FILE: C:\ussl\HYDRUS-1D v4\Examples\HP1\SEASONCHAIN\phreeqc.in
   OUTPUT FILE: C:\ussl\HYDRUS-1D v4\Examples\HP1\SEASONCHAIN\phreeqc.out
 DATABASE FILE: C:\Program Files\PC-Progress\HYDRUS-1D 4.xx\HP1 Databases\PHREEQC.DAT

------------------
Reading data base.
------------------

	SOLUTION_MASTER_SPECIES
	SOLUTION_SPECIES
	PHASES
	EXCHANGE_MASTER_SPECIES
	EXCHANGE_SPECIES
	SURFACE_MASTER_SPECIES
	SURFACE_SPECIES
	RATES
	END
------------------------------------
Reading input data for simulation 1.
------------------------------------

	TITLE : Welcome to HYDRUS-1D
	SOLUTION_MASTER_SPECIES
	 Conta Conta 0.0 Conta 1.0
	 Contb Contb 0.0 Contb 1.0
	 Contc Contc 0.0 Contc 1.0
	SOLUTION_SPECIES
	 Conta = Conta
	 log_k 0.0
	 Contb = Contb
	 log_k 0.0
	 Contc = Contc
	 log_k 0.0
	PHASES
	EXCHANGE_MASTER_SPECIES
	EXCHANGE_SPECIES
	SURFACE_MASTER_SPECIES
	 Sora Sora
	 Sorb Sorb
	 Sorc Sorc
	SURFACE_SPECIES
	 Sora = Sora
	  log_k 0
	 Sora + Conta = SoraConta
	 no_check
	 mole_balance SoraConta
	 log_k -100.12493873661
	 Sorb = Sorb
	  log_k 0
	 Sorb + 0.9 Contb = SorbContb
	 no_check
	 mole_balance SorbContb
	 log_k -99.42596873227
	 Sorc = Sorc
	  log_k 0
	 Sorc + 0.8 Contc = SorcContc
	 no_check
	 mole_balance SorcContc
	 log_k -99.12493873661
	RATES
	 degrad_conta
	 start
	  10 rem parm(1) first-order degradation coefficient (sec-1)
	  20 rate=parm(1)*TOT("water")*MOL("Conta")
	  30 moles=-rate*TIME
	  40 SAVE moles
	 end 
	 degrad_contb
	 start
	  10 rem parm(1) first-order degradation coefficient (sec-1)
	  20 rate=parm(1)*TOT("water")*MOL("Contb")
	  30 moles=-rate*TIME
	  40 SAVE moles
	 end 
	 degrad_contc
	 start
	  10 rem parm(1) first-order degradation coefficient (sec-1)
	  20 rate=parm(1)*TOT("water")*MOL("Contc")
	  30 moles=-rate*TIME
	  40 SAVE moles
	 end 
	 degrad_sorcontb
	 start
	  10 rem parm(1) first-order degradation coefficient (sec-1)
	  20 rate=parm(1)*MOL("SorbContb")
	  30 moles=-rate*TIME
	  40 SAVE moles
	 end 
	 degrad_sorcontc
	 start
	  10 rem parm(1) first-order degradation coefficient (sec-1)
	  20 rate=parm(1)*MOL("SorcContc")
	  30 moles=-rate*TIME
	  40 SAVE moles
	 end 
	SELECTED_OUTPUT
	 file SEASONCHAIN.hse
	 reset false 
	 solution true 
	 distance true 
	 time true 
	 ph true 
	 pe true 
	SELECTED_OUTPUT
	        totals        Conta Contb Contc
	        molalities    Conta Contb Contc SoraConta SorbContb SorcContc  
	solution 1001 initial solution
	solution 3001 upper boundary solution
	units mol/kgw
	Conta 1
	Contb 0.1
	solution 4001 lower boundary solution
	END
-----
TITLE
-----

 : Welcome to HYDRUS-1D

-------------------------------------------
Beginning of initial solution calculations.
-------------------------------------------

Initial solution 1001.	initial solution

-----------------------------Solution composition------------------------------

	Elements           Molality       Moles

	Pure water     

----------------------------Description of solution----------------------------

                                       pH  =   7.000    
                                       pe  =   4.000    
                        Activity of water  =   1.000
                           Ionic strength  =  1.001e-007
                       Mass of water (kg)  =  1.000e+000
                 Total alkalinity (eq/kg)  =  1.082e-010
                    Total carbon (mol/kg)  =  0.000e+000
                       Total CO2 (mol/kg)  =  0.000e+000
                      Temperature (deg C)  =  25.000
                  Electrical balance (eq)  = -1.082e-010
 Percent error, 100*(Cat-|An|)/(Cat+|An|)  =  -0.05
                               Iterations  =   0
                                  Total H  = 1.110124e+002
                                  Total O  = 5.550622e+001

----------------------------Distribution of species----------------------------

                                                   Log       Log         Log 
   Species                 Molality    Activity  Molality  Activity     Gamma

   OH-                   1.002e-007  1.001e-007    -6.999    -6.999    -0.000
   H+                    1.001e-007  1.000e-007    -7.000    -7.000    -0.000
   H2O                   5.551e+001  1.000e+000     1.744     0.000     0.000
H(0)            1.416e-025
   H2                    7.079e-026  7.079e-026   -25.150   -25.150     0.000
O(0)            0.000e+000
   O2                    0.000e+000  0.000e+000   -42.080   -42.080     0.000

------------------------------Saturation indices-------------------------------

	Phase               SI log IAP  log KT

	H2(g)           -21.96   21.04   43.00  H2
	H2O(g)           -1.51    0.00    1.51  H2O
	O2(g)           -39.19  -42.08   -2.89  O2

Initial solution 3001.	upper boundary solution

-----------------------------Solution composition------------------------------

	Elements           Molality       Moles

	Conta            1.000e+000  1.000e+000
	Contb            1.000e-001  1.000e-001

----------------------------Description of solution----------------------------

                                       pH  =   7.000    
                                       pe  =   4.000    
                        Activity of water  =   0.981
                           Ionic strength  =  9.915e-008
                       Mass of water (kg)  =  1.000e+000
                 Total alkalinity (eq/kg)  = -1.765e-009
                    Total carbon (mol/kg)  =  0.000e+000
                       Total CO2 (mol/kg)  =  0.000e+000
                      Temperature (deg C)  =  25.000
                  Electrical balance (eq)  =  1.765e-009
 Percent error, 100*(Cat-|An|)/(Cat+|An|)  =   0.89
                               Iterations  =  21
                                  Total H  = 1.110124e+002
                                  Total O  = 5.550622e+001

----------------------------Distribution of species----------------------------

                                                   Log       Log         Log 
   Species                 Molality    Activity  Molality  Activity     Gamma

   H+                    1.000e-007  1.000e-007    -7.000    -7.000    -0.000
   OH-                   9.827e-008  9.824e-008    -7.008    -7.008    -0.000
   H2O                   5.551e+001  9.813e-001     1.744    -0.008     0.000
Conta           1.000e+000
   Conta                 1.000e+000  1.000e+000    -0.000     0.000     0.000
Contb           1.000e-001
   Contb                 1.000e-001  1.000e-001    -1.000    -1.000     0.000
H(0)            1.416e-025
   H2                    7.079e-026  7.079e-026   -25.150   -25.150     0.000
O(0)            0.000e+000
   O2                    0.000e+000  0.000e+000   -42.096   -42.096     0.000

------------------------------Saturation indices-------------------------------

	Phase               SI log IAP  log KT

	H2(g)           -21.96   21.04   43.00  H2
	H2O(g)           -1.51   -0.01    1.51  H2O
	O2(g)           -39.20  -42.10   -2.89  O2

Initial solution 4001.	lower boundary solution

-----------------------------Solution composition------------------------------

	Elements           Molality       Moles

	Pure water     

----------------------------Description of solution----------------------------

                                       pH  =   7.000    
                                       pe  =   4.000    
                        Activity of water  =   1.000
                           Ionic strength  =  1.001e-007
                       Mass of water (kg)  =  1.000e+000
                 Total alkalinity (eq/kg)  =  1.082e-010
                    Total carbon (mol/kg)  =  0.000e+000
                       Total CO2 (mol/kg)  =  0.000e+000
                      Temperature (deg C)  =  25.000
                  Electrical balance (eq)  = -1.082e-010
 Percent error, 100*(Cat-|An|)/(Cat+|An|)  =  -0.05
                               Iterations  =   0
                                  Total H  = 1.110124e+002
                                  Total O  = 5.550622e+001

----------------------------Distribution of species----------------------------

                                                   Log       Log         Log 
   Species                 Molality    Activity  Molality  Activity     Gamma

   OH-                   1.002e-007  1.001e-007    -6.999    -6.999    -0.000
   H+                    1.001e-007  1.000e-007    -7.000    -7.000    -0.000
   H2O                   5.551e+001  1.000e+000     1.744     0.000     0.000
H(0)            1.416e-025
   H2                    7.079e-026  7.079e-026   -25.150   -25.150     0.000
O(0)            0.000e+000
   O2                    0.000e+000  0.000e+000   -42.080   -42.080     0.000

------------------------------Saturation indices-------------------------------

	Phase               SI log IAP  log KT

	H2(g)           -21.96   21.04   43.00  H2
	H2O(g)           -1.51    0.00    1.51  H2O
	O2(g)           -39.19  -42.08   -2.89  O2

------------------
End of simulation.
------------------

------------------------------------
Reading input data for simulation 2.
------------------------------------

	MIX 1 
		1001	0.286090	
	 SAVE SOLUTION	1	 
	 END
-----------------------------------------
Beginning of batch-reaction calculations.
-----------------------------------------

Reaction step 1.

Using mix 1.	

Mixture 1.	

	 2.861e-001 Solution 1001	initial solution                                       

-----------------------------Solution composition------------------------------

	Elements           Molality       Moles

	Pure water     

----------------------------Description of solution----------------------------

                                       pH  =   7.000      Charge balance
                                       pe  =  -0.871      Adjusted to redox equilibrium
                        Activity of water  =   1.000
                           Ionic strength  =  1.001e-007
                       Mass of water (kg)  =  2.861e-001
                 Total alkalinity (eq/kg)  =  1.082e-010
                    Total carbon (mol/kg)  =  0.000e+000
                       Total CO2 (mol/kg)  =  0.000e+000
                      Temperature (deg C)  =  25.000
                  Electrical balance (eq)  = -3.096e-011
 Percent error, 100*(Cat-|An|)/(Cat+|An|)  =  -0.05
                               Iterations  =   6
                                  Total H  = 3.175955e+001
                                  Total O  = 1.587977e+001

----------------------------Distribution of species----------------------------

                                                   Log       Log         Log 
   Species                 Molality    Activity  Molality  Activity     Gamma

   OH-                   1.001e-007  1.001e-007    -6.999    -7.000    -0.000
   H+                    1.000e-007  1.000e-007    -7.000    -7.000    -0.000
   H2O                   5.551e+001  1.000e+000     1.744    -0.000     0.000
H(0)            7.821e-016
   H2                    3.910e-016  3.910e-016   -15.408   -15.408     0.000
O(0)            0.000e+000
   O2                    0.000e+000  0.000e+000   -61.564   -61.564     0.000

------------------------------Saturation indices-------------------------------

	Phase               SI log IAP  log KT

	H2(g)           -12.22   30.78   43.00  H2
	H2O(g)           -1.51   -0.00    1.51  H2O
	O2(g)           -58.67  -61.56   -2.89  O2

------------------
End of simulation.
------------------

------------------------------------
Reading input data for simulation 3.
------------------------------------

	MIX 2 
		1001	0.286090	
	 SAVE SOLUTION	2	 
	 END
-----------------------------------------
Beginning of batch-reaction calculations.
-----------------------------------------

Reaction step 1.

Using mix 2.	

Mixture 2.	

	 2.861e-001 Solution 1001	initial solution                                       

-----------------------------Solution composition------------------------------

	Elements           Molality       Moles

	Pure water     

----------------------------Description of solution----------------------------

                                       pH  =   7.000      Charge balance
                                       pe  =  -0.871      Adjusted to redox equilibrium
                        Activity of water  =   1.000
                           Ionic strength  =  1.001e-007
                       Mass of water (kg)  =  2.861e-001
                 Total alkalinity (eq/kg)  =  1.082e-010
                    Total carbon (mol/kg)  =  0.000e+000
                       Total CO2 (mol/kg)  =  0.000e+000
                      Temperature (deg C)  =  25.000
                  Electrical balance (eq)  = -3.096e-011
 Percent error, 100*(Cat-|An|)/(Cat+|An|)  =  -0.05
                               Iterations  =   6
                                  Total H  = 3.175955e+001
                                  Total O  = 1.587977e+001

----------------------------Distribution of species----------------------------

                                                   Log       Log         Log 
   Species                 Molality    Activity  Molality  Activity     Gamma

   OH-                   1.001e-007  1.001e-007    -6.999    -7.000    -0.000
   H+                    1.000e-007  1.000e-007    -7.000    -7.000    -0.000
   H2O                   5.551e+001  1.000e+000     1.744    -0.000     0.000
H(0)            7.821e-016
   H2                    3.910e-016  3.910e-016   -15.408   -15.408     0.000
O(0)            0.000e+000
   O2                    0.000e+000  0.000e+000   -61.564   -61.564     0.000

------------------------------Saturation indices-------------------------------

	Phase               SI log IAP  log KT

	H2(g)           -12.22   30.78   43.00  H2
	H2O(g)           -1.51   -0.00    1.51  H2O
	O2(g)           -58.67  -61.56   -2.89  O2

------------------
End of simulation.
------------------

------------------------------------
Reading input data for simulation 4.
------------------------------------

	MIX 3 
		1001	0.286090	
	 SAVE SOLUTION	3	 
	 END
-----------------------------------------
Beginning of batch-reaction calculations.
-----------------------------------------

Reaction step 1.

Using mix 3.	

Mixture 3.	

	 2.861e-001 Solution 1001	initial solution                                       

-----------------------------Solution composition------------------------------

	Elements           Molality       Moles

	Pure water     

----------------------------Description of solution----------------------------

                                       pH  =   7.000      Charge balance
                                       pe  =  -0.871      Adjusted to redox equilibrium
                        Activity of water  =   1.000
                           Ionic strength  =  1.001e-007
                       Mass of water (kg)  =  2.861e-001
                 Total alkalinity (eq/kg)  =  1.082e-010
                    Total carbon (mol/kg)  =  0.000e+000
                       Total CO2 (mol/kg)  =  0.000e+000
                      Temperature (deg C)  =  25.000
                  Electrical balance (eq)  = -3.096e-011
 Percent error, 100*(Cat-|An|)/(Cat+|An|)  =  -0.05
                               Iterations  =   6
                                  Total H  = 3.175955e+001
                                  Total O  = 1.587977e+001

----------------------------Distribution of species----------------------------

                                                   Log       Log         Log 
   Species                 Molality    Activity  Molality  Activity     Gamma

   OH-                   1.001e-007  1.001e-007    -6.999    -7.000    -0.000
   H+                    1.000e-007  1.000e-007    -7.000    -7.000    -0.000
   H2O                   5.551e+001  1.000e+000     1.744    -0.000     0.000
H(0)            7.821e-016
   H2                    3.910e-016  3.910e-016   -15.408   -15.408     0.000
O(0)            0.000e+000
   O2                    0.000e+000  0.000e+000   -61.564   -61.564     0.000

------------------------------Saturation indices-------------------------------

	Phase               SI log IAP  log KT

	H2(g)           -12.22   30.78   43.00  H2
	H2O(g)           -1.51   -0.00    1.51  H2O
	O2(g)           -58.67  -61.56   -2.89  O2

------------------
End of simulation.
------------------

------------------------------------
Reading input data for simulation 5.
------------------------------------

	MIX 4 
		1001	0.286090	
	 SAVE SOLUTION	4	 
	 END
-----------------------------------------
Beginning of batch-reaction calculations.
-----------------------------------------

Reaction step 1.

Using mix 4.	

Mixture 4.	

	 2.861e-001 Solution 1001	initial solution                                       

-----------------------------Solution composition------------------------------

	Elements           Molality       Moles

	Pure water     

----------------------------Description of solution----------------------------

                                       pH  =   7.000      Charge balance
                                       pe  =  -0.871      Adjusted to redox equilibrium
                        Activity of water  =   1.000
                           Ionic strength  =  1.001e-007
                       Mass of water (kg)  =  2.861e-001
                 Total alkalinity (eq/kg)  =  1.082e-010
                    Total carbon (mol/kg)  =  0.000e+000
                       Total CO2 (mol/kg)  =  0.000e+000
                      Temperature (deg C)  =  25.000
                  Electrical balance (eq)  = -3.096e-011
 Percent error, 100*(Cat-|An|)/(Cat+|An|)  =  -0.05
                               Iterations  =   6
                                  Total H  = 3.175955e+001
                                  Total O  = 1.587977e+001

----------------------------Distribution of species----------------------------

                                                   Log       Log         Log 
   Species                 Molality    Activity  Molality  Activity     Gamma

   OH-                   1.001e-007  1.001e-007    -6.999    -7.000    -0.000
   H+                    1.000e-007  1.000e-007    -7.000    -7.000    -0.000
   H2O                   5.551e+001  1.000e+000     1.744    -0.000     0.000
H(0)            7.821e-016
   H2                    3.910e-016  3.910e-016   -15.408   -15.408     0.000
O(0)            0.000e+000
   O2                    0.000e+000  0.000e+000   -61.564   -61.564     0.000

------------------------------Saturation indices-------------------------------

	Phase               SI log IAP  log KT

	H2(g)           -12.22   30.78   43.00  H2
	H2O(g)           -1.51   -0.00    1.51  H2O
	O2(g)           -58.67  -61.56   -2.89  O2

------------------
End of simulation.
------------------

------------------------------------
Reading input data for simulation 6.
------------------------------------

	MIX 5 
		1001	0.286090	
	 SAVE SOLUTION	5	 
	 END
-----------------------------------------
Beginning of batch-reaction calculations.
-----------------------------------------

Reaction step 1.

Using mix 5.	

Mixture 5.	

	 2.861e-001 Solution 1001	initial solution                                       

-----------------------------Solution composition------------------------------

	Elements           Molality       Moles

	Pure water     

----------------------------Description of solution----------------------------

                                       pH  =   7.000      Charge balance
                                       pe  =  -0.871      Adjusted to redox equilibrium
                        Activity of water  =   1.000
                           Ionic strength  =  1.001e-007
                       Mass of water (kg)  =  2.861e-001
                 Total alkalinity (eq/kg)  =  1.082e-010
                    Total carbon (mol/kg)  =  0.000e+000
                       Total CO2 (mol/kg)  =  0.000e+000
                      Temperature (deg C)  =  25.000
                  Electrical balance (eq)  = -3.096e-011
 Percent error, 100*(Cat-|An|)/(Cat+|An|)  =  -0.05
                               Iterations  =   6
                                  Total H  = 3.175955e+001
                                  Total O  = 1.587977e+001

----------------------------Distribution of species----------------------------

                                                   Log       Log         Log 
   Species                 Molality    Activity  Molality  Activity     Gamma

   OH-                   1.001e-007  1.001e-007    -6.999    -7.000    -0.000
   H+                    1.000e-007  1.000e-007    -7.000    -7.000    -0.000
   H2O                   5.551e+001  1.000e+000     1.744    -0.000     0.000
H(0)            7.821e-016
   H2                    3.910e-016  3.910e-016   -15.408   -15.408     0.000
O(0)            0.000e+000
   O2                    0.000e+000  0.000e+000   -61.564   -61.564     0.000

------------------------------Saturation indices-------------------------------

	Phase               SI log IAP  log KT

	H2(g)           -12.22   30.78   43.00  H2
	H2O(g)           -1.51   -0.00    1.51  H2O
	O2(g)           -58.67  -61.56   -2.89  O2

------------------
End of simulation.
------------------

------------------------------------
Reading input data for simulation 7.
------------------------------------

	MIX 6 
		1001	0.286090	
	 SAVE SOLUTION	6	 
	 END
-----------------------------------------
Beginning of batch-reaction calculations.
-----------------------------------------

Reaction step 1.

Using mix 6.	

Mixture 6.	

	 2.861e-001 Solution 1001	initial solution                                       

-----------------------------Solution composition------------------------------

	Elements           Molality       Moles

	Pure water     

----------------------------Description of solution----------------------------

                                       pH  =   7.000      Charge balance
                                       pe  =  -0.871      Adjusted to redox equilibrium
                        Activity of water  =   1.000
                           Ionic strength  =  1.001e-007
                       Mass of water (kg)  =  2.861e-001
                 Total alkalinity (eq/kg)  =  1.082e-010
                    Total carbon (mol/kg)  =  0.000e+000
                       Total CO2 (mol/kg)  =  0.000e+000
                      Temperature (deg C)  =  25.000
                  Electrical balance (eq)  = -3.096e-011
 Percent error, 100*(Cat-|An|)/(Cat+|An|)  =  -0.05
                               Iterations  =   6
                                  Total H  = 3.175955e+001
                                  Total O  = 1.587977e+001

----------------------------Distribution of species----------------------------

                                                   Log       Log         Log 
   Species                 Molality    Activity  Molality  Activity     Gamma

   OH-                   1.001e-007  1.001e-007    -6.999    -7.000    -0.000
   H+                    1.000e-007  1.000e-007    -7.000    -7.000    -0.000
   H2O                   5.551e+001  1.000e+000     1.744    -0.000     0.000
H(0)            7.821e-016
   H2                    3.910e-016  3.910e-016   -15.408   -15.408     0.000
O(0)            0.000e+000
   O2                    0.000e+000  0.000e+000   -61.564   -61.564     0.000

------------------------------Saturation indices-------------------------------

	Phase               SI log IAP  log KT

	H2(g)           -12.22   30.78   43.00  H2
	H2O(g)           -1.51   -0.00    1.51  H2O
	O2(g)           -58.67  -61.56   -2.89  O2

------------------
End of simulation.
------------------

------------------------------------
Reading input data for simulation 8.
------------------------------------

	MIX 7 
		1001	0.286090	
	 SAVE SOLUTION	7	 
	 END
-----------------------------------------
Beginning of batch-reaction calculations.
-----------------------------------------

Reaction step 1.

Using mix 7.	

Mixture 7.	

	 2.861e-001 Solution 1001	initial solution                                       

-----------------------------Solution composition------------------------------

	Elements           Molality       Moles

	Pure water     

----------------------------Description of solution----------------------------

                                       pH  =   7.000      Charge balance
                                       pe  =  -0.871      Adjusted to redox equilibrium
                        Activity of water  =   1.000
                           Ionic strength  =  1.001e-007
                       Mass of water (kg)  =  2.861e-001
                 Total alkalinity (eq/kg)  =  1.082e-010
                    Total carbon (mol/kg)  =  0.000e+000
                       Total CO2 (mol/kg)  =  0.000e+000
                      Temperature (deg C)  =  25.000
                  Electrical balance (eq)  = -3.096e-011
 Percent error, 100*(Cat-|An|)/(Cat+|An|)  =  -0.05
                               Iterations  =   6
                                  Total H  = 3.175955e+001
                                  Total O  = 1.587977e+001

----------------------------Distribution of species----------------------------

                                                   Log       Log         Log 
   Species                 Molality    Activity  Molality  Activity     Gamma

   OH-                   1.001e-007  1.001e-007    -6.999    -7.000    -0.000
   H+                    1.000e-007  1.000e-007    -7.000    -7.000    -0.000
   H2O                   5.551e+001  1.000e+000     1.744    -0.000     0.000
H(0)            7.821e-016
   H2                    3.910e-016  3.910e-016   -15.408   -15.408     0.000
O(0)            0.000e+000
   O2                    0.000e+000  0.000e+000   -61.564   -61.564     0.000

------------------------------Saturation indices-------------------------------

	Phase               SI log IAP  log KT

	H2(g)           -12.22   30.78   43.00  H2
	H2O(g)           -1.51   -0.00    1.51  H2O
	O2(g)           -58.67  -61.56   -2.89  O2

------------------
End of simulation.
------------------

------------------------------------
Reading input data for simulation 9.
------------------------------------

	MIX 8 
		1001	0.286090	
	 SAVE SOLUTION	8	 
	 END
-----------------------------------------
Beginning of batch-reaction calculations.
-----------------------------------------

Reaction step 1.

Using mix 8.	

Mixture 8.	

	 2.861e-001 Solution 1001	initial solution                                       

-----------------------------Solution composition------------------------------

	Elements           Molality       Moles

	Pure water     

----------------------------Description of solution----------------------------

                                       pH  =   7.000      Charge balance
                                       pe  =  -0.871      Adjusted to redox equilibrium
                        Activity of water  =   1.000
                           Ionic strength  =  1.001e-007
                       Mass of water (kg)  =  2.861e-001
                 Total alkalinity (eq/kg)  =  1.082e-010
                    Total carbon (mol/kg)  =  0.000e+000
                       Total CO2 (mol/kg)  =  0.000e+000
                      Temperature (deg C)  =  25.000
                  Electrical balance (eq)  = -3.096e-011
 Percent error, 100*(Cat-|An|)/(Cat+|An|)  =  -0.05
                               Iterations  =   6
                                  Total H  = 3.175955e+001
                                  Total O  = 1.587977e+001

----------------------------Distribution of species----------------------------

                                                   Log       Log         Log 
   Species                 Molality    Activity  Molality  Activity     Gamma

   OH-                   1.001e-007  1.001e-007    -6.999    -7.000    -0.000
   H+                    1.000e-007  1.000e-007    -7.000    -7.000    -0.000
   H2O                   5.551e+001  1.000e+000     1.744    -0.000     0.000
H(0)            7.821e-016
   H2                    3.910e-016  3.910e-016   -15.408   -15.408     0.000
O(0)            0.000e+000
   O2                    0.000e+000  0.000e+000   -61.564   -61.564     0.000

------------------------------Saturation indices-------------------------------

	Phase               SI log IAP  log KT

	H2(g)           -12.22   30.78   43.00  H2
	H2O(g)           -1.51   -0.00    1.51  H2O
	O2(g)           -58.67  -61.56   -2.89  O2

------------------
End of simulation.
------------------

-------------------------------------
Reading input data for simulation 10.
-------------------------------------

	MIX 9 
		1001	0.286090	
	 SAVE SOLUTION	9	 
	 END
-----------------------------------------
Beginning of batch-reaction calculations.
-----------------------------------------

Reaction step 1.

Using mix 9.	

Mixture 9.	

	 2.861e-001 Solution 1001	initial solution                                       

-----------------------------Solution composition------------------------------

	Elements           Molality       Moles

	Pure water     

----------------------------Description of solution----------------------------

                                       pH  =   7.000      Charge balance
                                       pe  =  -0.871      Adjusted to redox equilibrium
                        Activity of water  =   1.000
                           Ionic strength  =  1.001e-007
                       Mass of water (kg)  =  2.861e-001
                 Total alkalinity (eq/kg)  =  1.082e-010
                    Total carbon (mol/kg)  =  0.000e+000
                       Total CO2 (mol/kg)  =  0.000e+000
                      Temperature (deg C)  =  25.000
                  Electrical balance (eq)  = -3.096e-011
 Percent error, 100*(Cat-|An|)/(Cat+|An|)  =  -0.05
                               Iterations  =   6
                                  Total H  = 3.175955e+001
                                  Total O  = 1.587977e+001

----------------------------Distribution of species----------------------------

                                                   Log       Log         Log 
   Species                 Molality    Activity  Molality  Activity     Gamma

   OH-                   1.001e-007  1.001e-007    -6.999    -7.000    -0.000
   H+                    1.000e-007  1.000e-007    -7.000    -7.000    -0.000
   H2O                   5.551e+001  1.000e+000     1.744    -0.000     0.000
H(0)            7.821e-016
   H2                    3.910e-016  3.910e-016   -15.408   -15.408     0.000
O(0)            0.000e+000
   O2                    0.000e+000  0.000e+000   -61.564   -61.564     0.000

------------------------------Saturation indices-------------------------------

	Phase               SI log IAP  log KT

	H2(g)           -12.22   30.78   43.00  H2
	H2O(g)           -1.51   -0.00    1.51  H2O
	O2(g)           -58.67  -61.56   -2.89  O2

------------------
End of simulation.
------------------

-------------------------------------
Reading input data for simulation 11.
-------------------------------------

	MIX 10 
		1001	0.286090	
	 SAVE SOLUTION	10	 
	 END
-----------------------------------------
Beginning of batch-reaction calculations.
-----------------------------------------

Reaction step 1.

Using mix 10.	

Mixture 10.	

	 2.861e-001 Solution 1001	initial solution                                       

-----------------------------Solution composition------------------------------

	Elements           Molality       Moles

	Pure water     

----------------------------Description of solution----------------------------

                                       pH  =   7.000      Charge balance
                                       pe  =  -0.871      Adjusted to redox equilibrium
                        Activity of water  =   1.000
                           Ionic strength  =  1.001e-007
                       Mass of water (kg)  =  2.861e-001
                 Total alkalinity (eq/kg)  =  1.082e-010
                    Total carbon (mol/kg)  =  0.000e+000
                       Total CO2 (mol/kg)  =  0.000e+000
                      Temperature (deg C)  =  25.000
                  Electrical balance (eq)  = -3.096e-011
 Percent error, 100*(Cat-|An|)/(Cat+|An|)  =  -0.05
                               Iterations  =   6
                                  Total H  = 3.175955e+001
                                  Total O  = 1.587977e+001

----------------------------Distribution of species----------------------------

                                                   Log       Log         Log 
   Species                 Molality    Activity  Molality  Activity     Gamma

   OH-                   1.001e-007  1.001e-007    -6.999    -7.000    -0.000
   H+                    1.000e-007  1.000e-007    -7.000    -7.000    -0.000
   H2O                   5.551e+001  1.000e+000     1.744    -0.000     0.000
H(0)            7.821e-016
   H2                    3.910e-016  3.910e-016   -15.408   -15.408     0.000
O(0)            0.000e+000
   O2                    0.000e+000  0.000e+000   -61.564   -61.564     0.000

------------------------------Saturation indices-------------------------------

	Phase               SI log IAP  log KT

	H2(g)           -12.22   30.78   43.00  H2
	H2O(g)           -1.51   -0.00    1.51  H2O
	O2(g)           -58.67  -61.56   -2.89  O2

------------------
End of simulation.
------------------

-------------------------------------
Reading input data for simulation 12.
-------------------------------------

	MIX 11 
		1001	0.286090	
	 SAVE SOLUTION	11	 
	 END
-----------------------------------------
Beginning of batch-reaction calculations.
-----------------------------------------

Reaction step 1.

Using mix 11.	

Mixture 11.	

	 2.861e-001 Solution 1001	initial solution                                       

-----------------------------Solution composition------------------------------

	Elements           Molality       Moles

	Pure water     

----------------------------Description of solution----------------------------

                                       pH  =   7.000      Charge balance
                                       pe  =  -0.871      Adjusted to redox equilibrium
                        Activity of water  =   1.000
                           Ionic strength  =  1.001e-007
                       Mass of water (kg)  =  2.861e-001
                 Total alkalinity (eq/kg)  =  1.082e-010
                    Total carbon (mol/kg)  =  0.000e+000
                       Total CO2 (mol/kg)  =  0.000e+000
                      Temperature (deg C)  =  25.000
                  Electrical balance (eq)  = -3.096e-011
 Percent error, 100*(Cat-|An|)/(Cat+|An|)  =  -0.05
                               Iterations  =   6
                                  Total H  = 3.175955e+001
                                  Total O  = 1.587977e+001

----------------------------Distribution of species----------------------------

                                                   Log       Log         Log 
   Species                 Molality    Activity  Molality  Activity     Gamma

   OH-                   1.001e-007  1.001e-007    -6.999    -7.000    -0.000
   H+                    1.000e-007  1.000e-007    -7.000    -7.000    -0.000
   H2O                   5.551e+001  1.000e+000     1.744    -0.000     0.000
H(0)            7.821e-016
   H2                    3.910e-016  3.910e-016   -15.408   -15.408     0.000
O(0)            0.000e+000
   O2                    0.000e+000  0.000e+000   -61.564   -61.564     0.000

------------------------------Saturation indices-------------------------------

	Phase               SI log IAP  log KT

	H2(g)           -12.22   30.78   43.00  H2
	H2O(g)           -1.51   -0.00    1.51  H2O
	O2(g)           -58.67  -61.56   -2.89  O2

------------------
End of simulation.
------------------

-------------------------------------
Reading input data for simulation 13.
-------------------------------------

	MIX 12 
		1001	0.286090	
	 SAVE SOLUTION	12	 
	 END
-----------------------------------------
Beginning of batch-reaction calculations.
-----------------------------------------

Reaction step 1.

Using mix 12.	

Mixture 12.	

	 2.861e-001 Solution 1001	initial solution                                       

-----------------------------Solution composition------------------------------

	Elements           Molality       Moles

	Pure water     

----------------------------Description of solution----------------------------

                                       pH  =   7.000      Charge balance
                                       pe  =  -0.871      Adjusted to redox equilibrium
                        Activity of water  =   1.000
                           Ionic strength  =  1.001e-007
                       Mass of water (kg)  =  2.861e-001
                 Total alkalinity (eq/kg)  =  1.082e-010
                    Total carbon (mol/kg)  =  0.000e+000
                       Total CO2 (mol/kg)  =  0.000e+000
                      Temperature (deg C)  =  25.000
                  Electrical balance (eq)  = -3.096e-011
 Percent error, 100*(Cat-|An|)/(Cat+|An|)  =  -0.05
                               Iterations  =   6
                                  Total H  = 3.175955e+001
                                  Total O  = 1.587977e+001

----------------------------Distribution of species----------------------------

                                                   Log       Log         Log 
   Species                 Molality    Activity  Molality  Activity     Gamma

   OH-                   1.001e-007  1.001e-007    -6.999    -7.000    -0.000
   H+                    1.000e-007  1.000e-007    -7.000    -7.000    -0.000
   H2O                   5.551e+001  1.000e+000     1.744    -0.000     0.000
H(0)            7.821e-016
   H2                    3.910e-016  3.910e-016   -15.408   -15.408     0.000
O(0)            0.000e+000
   O2                    0.000e+000  0.000e+000   -61.564   -61.564     0.000

------------------------------Saturation indices-------------------------------

	Phase               SI log IAP  log KT

	H2(g)           -12.22   30.78   43.00  H2
	H2O(g)           -1.51   -0.00    1.51  H2O
	O2(g)           -58.67  -61.56   -2.89  O2

------------------
End of simulation.
------------------

-------------------------------------
Reading input data for simulation 14.
-------------------------------------

	MIX 13 
		1001	0.286090	
	 SAVE SOLUTION	13	 
	 END
-----------------------------------------
Beginning of batch-reaction calculations.
-----------------------------------------

Reaction step 1.

Using mix 13.	

Mixture 13.	

	 2.861e-001 Solution 1001	initial solution                                       

-----------------------------Solution composition------------------------------

	Elements           Molality       Moles

	Pure water     

----------------------------Description of solution----------------------------

                                       pH  =   7.000      Charge balance
                                       pe  =  -0.871      Adjusted to redox equilibrium
                        Activity of water  =   1.000
                           Ionic strength  =  1.001e-007
                       Mass of water (kg)  =  2.861e-001
                 Total alkalinity (eq/kg)  =  1.082e-010
                    Total carbon (mol/kg)  =  0.000e+000
                       Total CO2 (mol/kg)  =  0.000e+000
                      Temperature (deg C)  =  25.000
                  Electrical balance (eq)  = -3.096e-011
 Percent error, 100*(Cat-|An|)/(Cat+|An|)  =  -0.05
                               Iterations  =   6
                                  Total H  = 3.175955e+001
                                  Total O  = 1.587977e+001

----------------------------Distribution of species----------------------------

                                                   Log       Log         Log 
   Species                 Molality    Activity  Molality  Activity     Gamma

   OH-                   1.001e-007  1.001e-007    -6.999    -7.000    -0.000
   H+                    1.000e-007  1.000e-007    -7.000    -7.000    -0.000
   H2O                   5.551e+001  1.000e+000     1.744    -0.000     0.000
H(0)            7.821e-016
   H2                    3.910e-016  3.910e-016   -15.408   -15.408     0.000
O(0)            0.000e+000
   O2                    0.000e+000  0.000e+000   -61.564   -61.564     0.000

------------------------------Saturation indices-------------------------------

	Phase               SI log IAP  log KT

	H2(g)           -12.22   30.78   43.00  H2
	H2O(g)           -1.51   -0.00    1.51  H2O
	O2(g)           -58.67  -61.56   -2.89  O2

------------------
End of simulation.
------------------

-------------------------------------
Reading input data for simulation 15.
-------------------------------------

	MIX 14 
		1001	0.286090	
	 SAVE SOLUTION	14	 
	 END
-----------------------------------------
Beginning of batch-reaction calculations.
-----------------------------------------

Reaction step 1.

Using mix 14.	

Mixture 14.	

	 2.861e-001 Solution 1001	initial solution                                       

-----------------------------Solution composition------------------------------

	Elements           Molality       Moles

	Pure water     

----------------------------Description of solution----------------------------

                                       pH  =   7.000      Charge balance
                                       pe  =  -0.871      Adjusted to redox equilibrium
                        Activity of water  =   1.000
                           Ionic strength  =  1.001e-007
                       Mass of water (kg)  =  2.861e-001
                 Total alkalinity (eq/kg)  =  1.082e-010
                    Total carbon (mol/kg)  =  0.000e+000
                       Total CO2 (mol/kg)  =  0.000e+000
                      Temperature (deg C)  =  25.000
                  Electrical balance (eq)  = -3.096e-011
 Percent error, 100*(Cat-|An|)/(Cat+|An|)  =  -0.05
                               Iterations  =   6
                                  Total H  = 3.175955e+001
                                  Total O  = 1.587977e+001

----------------------------Distribution of species----------------------------

                                                   Log       Log         Log 
   Species                 Molality    Activity  Molality  Activity     Gamma

   OH-                   1.001e-007  1.001e-007    -6.999    -7.000    -0.000
   H+                    1.000e-007  1.000e-007    -7.000    -7.000    -0.000
   H2O                   5.551e+001  1.000e+000     1.744    -0.000     0.000
H(0)            7.821e-016
   H2                    3.910e-016  3.910e-016   -15.408   -15.408     0.000
O(0)            0.000e+000
   O2                    0.000e+000  0.000e+000   -61.564   -61.564     0.000

------------------------------Saturation indices-------------------------------

	Phase               SI log IAP  log KT

	H2(g)           -12.22   30.78   43.00  H2
	H2O(g)           -1.51   -0.00    1.51  H2O
	O2(g)           -58.67  -61.56   -2.89  O2

------------------
End of simulation.
------------------

-------------------------------------
Reading input data for simulation 16.
-------------------------------------

	MIX 15 
		1001	0.286090	
	 SAVE SOLUTION	15	 
	 END
-----------------------------------------
Beginning of batch-reaction calculations.
-----------------------------------------

Reaction step 1.

Using mix 15.	

Mixture 15.	

	 2.861e-001 Solution 1001	initial solution                                       

-----------------------------Solution composition------------------------------

	Elements           Molality       Moles

	Pure water     

----------------------------Description of solution----------------------------

                                       pH  =   7.000      Charge balance
                                       pe  =  -0.871      Adjusted to redox equilibrium
                        Activity of water  =   1.000
                           Ionic strength  =  1.001e-007
                       Mass of water (kg)  =  2.861e-001
                 Total alkalinity (eq/kg)  =  1.082e-010
                    Total carbon (mol/kg)  =  0.000e+000
                       Total CO2 (mol/kg)  =  0.000e+000
                      Temperature (deg C)  =  25.000
                  Electrical balance (eq)  = -3.096e-011
 Percent error, 100*(Cat-|An|)/(Cat+|An|)  =  -0.05
                               Iterations  =   6
                                  Total H  = 3.175955e+001
                                  Total O  = 1.587977e+001

----------------------------Distribution of species----------------------------

                                                   Log       Log         Log 
   Species                 Molality    Activity  Molality  Activity     Gamma

   OH-                   1.001e-007  1.001e-007    -6.999    -7.000    -0.000
   H+                    1.000e-007  1.000e-007    -7.000    -7.000    -0.000
   H2O                   5.551e+001  1.000e+000     1.744    -0.000     0.000
H(0)            7.821e-016
   H2                    3.910e-016  3.910e-016   -15.408   -15.408     0.000
O(0)            0.000e+000
   O2                    0.000e+000  0.000e+000   -61.564   -61.564     0.000

------------------------------Saturation indices-------------------------------

	Phase               SI log IAP  log KT

	H2(g)           -12.22   30.78   43.00  H2
	H2O(g)           -1.51   -0.00    1.51  H2O
	O2(g)           -58.67  -61.56   -2.89  O2

------------------
End of simulation.
------------------

-------------------------------------
Reading input data for simulation 17.
-------------------------------------

	MIX 16 
		1001	0.286090	
	 SAVE SOLUTION	16	 
	 END
-----------------------------------------
Beginning of batch-reaction calculations.
-----------------------------------------

Reaction step 1.

Using mix 16.	

Mixture 16.	

	 2.861e-001 Solution 1001	initial solution                                       

-----------------------------Solution composition------------------------------

	Elements           Molality       Moles

	Pure water     

----------------------------Description of solution----------------------------

                                       pH  =   7.000      Charge balance
                                       pe  =  -0.871      Adjusted to redox equilibrium
                        Activity of water  =   1.000
                           Ionic strength  =  1.001e-007
                       Mass of water (kg)  =  2.861e-001
                 Total alkalinity (eq/kg)  =  1.082e-010
                    Total carbon (mol/kg)  =  0.000e+000
                       Total CO2 (mol/kg)  =  0.000e+000
                      Temperature (deg C)  =  25.000
                  Electrical balance (eq)  = -3.096e-011
 Percent error, 100*(Cat-|An|)/(Cat+|An|)  =  -0.05
                               Iterations  =   6
                                  Total H  = 3.175955e+001
                                  Total O  = 1.587977e+001

----------------------------Distribution of species----------------------------

                                                   Log       Log         Log 
   Species                 Molality    Activity  Molality  Activity     Gamma

   OH-                   1.001e-007  1.001e-007    -6.999    -7.000    -0.000
   H+                    1.000e-007  1.000e-007    -7.000    -7.000    -0.000
   H2O                   5.551e+001  1.000e+000     1.744    -0.000     0.000
H(0)            7.821e-016
   H2                    3.910e-016  3.910e-016   -15.408   -15.408     0.000
O(0)            0.000e+000
   O2                    0.000e+000  0.000e+000   -61.564   -61.564     0.000

------------------------------Saturation indices-------------------------------

	Phase               SI log IAP  log KT

	H2(g)           -12.22   30.78   43.00  H2
	H2O(g)           -1.51   -0.00    1.51  H2O
	O2(g)           -58.67  -61.56   -2.89  O2

------------------
End of simulation.
------------------

-------------------------------------
Reading input data for simulation 18.
-------------------------------------

	MIX 17 
		1001	0.286090	
	 SAVE SOLUTION	17	 
	 END
-----------------------------------------
Beginning of batch-reaction calculations.
-----------------------------------------

Reaction step 1.

Using mix 17.	

Mixture 17.	

	 2.861e-001 Solution 1001	initial solution                                       

-----------------------------Solution composition------------------------------

	Elements           Molality       Moles

	Pure water     

----------------------------Description of solution----------------------------

                                       pH  =   7.000      Charge balance
                                       pe  =  -0.871      Adjusted to redox equilibrium
                        Activity of water  =   1.000
                           Ionic strength  =  1.001e-007
                       Mass of water (kg)  =  2.861e-001
                 Total alkalinity (eq/kg)  =  1.082e-010
                    Total carbon (mol/kg)  =  0.000e+000
                       Total CO2 (mol/kg)  =  0.000e+000
                      Temperature (deg C)  =  25.000
                  Electrical balance (eq)  = -3.096e-011
 Percent error, 100*(Cat-|An|)/(Cat+|An|)  =  -0.05
                               Iterations  =   6
                                  Total H  = 3.175955e+001
                                  Total O  = 1.587977e+001

----------------------------Distribution of species----------------------------

                                                   Log       Log         Log 
   Species                 Molality    Activity  Molality  Activity     Gamma

   OH-                   1.001e-007  1.001e-007    -6.999    -7.000    -0.000
   H+                    1.000e-007  1.000e-007    -7.000    -7.000    -0.000
   H2O                   5.551e+001  1.000e+000     1.744    -0.000     0.000
H(0)            7.821e-016
   H2                    3.910e-016  3.910e-016   -15.408   -15.408     0.000
O(0)            0.000e+000
   O2                    0.000e+000  0.000e+000   -61.564   -61.564     0.000

------------------------------Saturation indices-------------------------------

	Phase               SI log IAP  log KT

	H2(g)           -12.22   30.78   43.00  H2
	H2O(g)           -1.51   -0.00    1.51  H2O
	O2(g)           -58.67  -61.56   -2.89  O2

------------------
End of simulation.
------------------

-------------------------------------
Reading input data for simulation 19.
-------------------------------------

	MIX 18 
		1001	0.286090	
	 SAVE SOLUTION	18	 
	 END
-----------------------------------------
Beginning of batch-reaction calculations.
-----------------------------------------

Reaction step 1.

Using mix 18.	

Mixture 18.	

	 2.861e-001 Solution 1001	initial solution                                       

-----------------------------Solution composition------------------------------

	Elements           Molality       Moles

	Pure water     

----------------------------Description of solution----------------------------

                                       pH  =   7.000      Charge balance
                                       pe  =  -0.871      Adjusted to redox equilibrium
                        Activity of water  =   1.000
                           Ionic strength  =  1.001e-007
                       Mass of water (kg)  =  2.861e-001
                 Total alkalinity (eq/kg)  =  1.082e-010
                    Total carbon (mol/kg)  =  0.000e+000
                       Total CO2 (mol/kg)  =  0.000e+000
                      Temperature (deg C)  =  25.000
                  Electrical balance (eq)  = -3.096e-011
 Percent error, 100*(Cat-|An|)/(Cat+|An|)  =  -0.05
                               Iterations  =   6
                                  Total H  = 3.175955e+001
                                  Total O  = 1.587977e+001

----------------------------Distribution of species----------------------------

                                                   Log       Log         Log 
   Species                 Molality    Activity  Molality  Activity     Gamma

   OH-                   1.001e-007  1.001e-007    -6.999    -7.000    -0.000
   H+                    1.000e-007  1.000e-007    -7.000    -7.000    -0.000
   H2O                   5.551e+001  1.000e+000     1.744    -0.000     0.000
H(0)            7.821e-016
   H2                    3.910e-016  3.910e-016   -15.408   -15.408     0.000
O(0)            0.000e+000
   O2                    0.000e+000  0.000e+000   -61.564   -61.564     0.000

------------------------------Saturation indices-------------------------------

	Phase               SI log IAP  log KT

	H2(g)           -12.22   30.78   43.00  H2
	H2O(g)           -1.51   -0.00    1.51  H2O
	O2(g)           -58.67  -61.56   -2.89  O2

------------------
End of simulation.
------------------

-------------------------------------
Reading input data for simulation 20.
-------------------------------------

	MIX 19 
		1001	0.286090	
	 SAVE SOLUTION	19	 
	 END
-----------------------------------------
Beginning of batch-reaction calculations.
-----------------------------------------

Reaction step 1.

Using mix 19.	

Mixture 19.	

	 2.861e-001 Solution 1001	initial solution                                       

-----------------------------Solution composition------------------------------

	Elements           Molality       Moles

	Pure water     

----------------------------Description of solution----------------------------

                                       pH  =   7.000      Charge balance
                                       pe  =  -0.871      Adjusted to redox equilibrium
                        Activity of water  =   1.000
                           Ionic strength  =  1.001e-007
                       Mass of water (kg)  =  2.861e-001
                 Total alkalinity (eq/kg)  =  1.082e-010
                    Total carbon (mol/kg)  =  0.000e+000
                       Total CO2 (mol/kg)  =  0.000e+000
                      Temperature (deg C)  =  25.000
                  Electrical balance (eq)  = -3.096e-011
 Percent error, 100*(Cat-|An|)/(Cat+|An|)  =  -0.05
                               Iterations  =   6
                                  Total H  = 3.175955e+001
                                  Total O  = 1.587977e+001

----------------------------Distribution of species----------------------------

                                                   Log       Log         Log 
   Species                 Molality    Activity  Molality  Activity     Gamma

   OH-                   1.001e-007  1.001e-007    -6.999    -7.000    -0.000
   H+                    1.000e-007  1.000e-007    -7.000    -7.000    -0.000
   H2O                   5.551e+001  1.000e+000     1.744    -0.000     0.000
H(0)            7.821e-016
   H2                    3.910e-016  3.910e-016   -15.408   -15.408     0.000
O(0)            0.000e+000
   O2                    0.000e+000  0.000e+000   -61.564   -61.564     0.000

------------------------------Saturation indices-------------------------------

	Phase               SI log IAP  log KT

	H2(g)           -12.22   30.78   43.00  H2
	H2O(g)           -1.51   -0.00    1.51  H2O
	O2(g)           -58.67  -61.56   -2.89  O2

------------------
End of simulation.
------------------

-------------------------------------
Reading input data for simulation 21.
-------------------------------------

	MIX 20 
		1001	0.286090	
	 SAVE SOLUTION	20	 
	 END
-----------------------------------------
Beginning of batch-reaction calculations.
-----------------------------------------

Reaction step 1.

Using mix 20.	

Mixture 20.	

	 2.861e-001 Solution 1001	initial solution                                       

-----------------------------Solution composition------------------------------

	Elements           Molality       Moles

	Pure water     

----------------------------Description of solution----------------------------

                                       pH  =   7.000      Charge balance
                                       pe  =  -0.871      Adjusted to redox equilibrium
                        Activity of water  =   1.000
                           Ionic strength  =  1.001e-007
                       Mass of water (kg)  =  2.861e-001
                 Total alkalinity (eq/kg)  =  1.082e-010
                    Total carbon (mol/kg)  =  0.000e+000
                       Total CO2 (mol/kg)  =  0.000e+000
                      Temperature (deg C)  =  25.000
                  Electrical balance (eq)  = -3.096e-011
 Percent error, 100*(Cat-|An|)/(Cat+|An|)  =  -0.05
                               Iterations  =   6
                                  Total H  = 3.175955e+001
                                  Total O  = 1.587977e+001

----------------------------Distribution of species----------------------------

                                                   Log       Log         Log 
   Species                 Molality    Activity  Molality  Activity     Gamma

   OH-                   1.001e-007  1.001e-007    -6.999    -7.000    -0.000
   H+                    1.000e-007  1.000e-007    -7.000    -7.000    -0.000
   H2O                   5.551e+001  1.000e+000     1.744    -0.000     0.000
H(0)            7.821e-016
   H2                    3.910e-016  3.910e-016   -15.408   -15.408     0.000
O(0)            0.000e+000
   O2                    0.000e+000  0.000e+000   -61.564   -61.564     0.000

------------------------------Saturation indices-------------------------------

	Phase               SI log IAP  log KT

	H2(g)           -12.22   30.78   43.00  H2
	H2O(g)           -1.51   -0.00    1.51  H2O
	O2(g)           -58.67  -61.56   -2.89  O2

------------------
End of simulation.
------------------

-------------------------------------
Reading input data for simulation 22.
-------------------------------------

	MIX 21 
		1001	0.286090	
	 SAVE SOLUTION	21	 
	 END
-----------------------------------------
Beginning of batch-reaction calculations.
-----------------------------------------

Reaction step 1.

Using mix 21.	

Mixture 21.	

	 2.861e-001 Solution 1001	initial solution                                       

-----------------------------Solution composition------------------------------

	Elements           Molality       Moles

	Pure water     

----------------------------Description of solution----------------------------

                                       pH  =   7.000      Charge balance
                                       pe  =  -0.871      Adjusted to redox equilibrium
                        Activity of water  =   1.000
                           Ionic strength  =  1.001e-007
                       Mass of water (kg)  =  2.861e-001
                 Total alkalinity (eq/kg)  =  1.082e-010
                    Total carbon (mol/kg)  =  0.000e+000
                       Total CO2 (mol/kg)  =  0.000e+000
                      Temperature (deg C)  =  25.000
                  Electrical balance (eq)  = -3.096e-011
 Percent error, 100*(Cat-|An|)/(Cat+|An|)  =  -0.05
                               Iterations  =   6
                                  Total H  = 3.175955e+001
                                  Total O  = 1.587977e+001

----------------------------Distribution of species----------------------------

                                                   Log       Log         Log 
   Species                 Molality    Activity  Molality  Activity     Gamma

   OH-                   1.001e-007  1.001e-007    -6.999    -7.000    -0.000
   H+                    1.000e-007  1.000e-007    -7.000    -7.000    -0.000
   H2O                   5.551e+001  1.000e+000     1.744    -0.000     0.000
H(0)            7.821e-016
   H2                    3.910e-016  3.910e-016   -15.408   -15.408     0.000
O(0)            0.000e+000
   O2                    0.000e+000  0.000e+000   -61.564   -61.564     0.000

------------------------------Saturation indices-------------------------------

	Phase               SI log IAP  log KT

	H2(g)           -12.22   30.78   43.00  H2
	H2O(g)           -1.51   -0.00    1.51  H2O
	O2(g)           -58.67  -61.56   -2.89  O2

------------------
End of simulation.
------------------

-------------------------------------
Reading input data for simulation 23.
-------------------------------------

	MIX 22 
		1001	0.286090	
	 SAVE SOLUTION	22	 
	 END
-----------------------------------------
Beginning of batch-reaction calculations.
-----------------------------------------

Reaction step 1.

Using mix 22.	

Mixture 22.	

	 2.861e-001 Solution 1001	initial solution                                       

-----------------------------Solution composition------------------------------

	Elements           Molality       Moles

	Pure water     

----------------------------Description of solution----------------------------

                                       pH  =   7.000      Charge balance
                                       pe  =  -0.871      Adjusted to redox equilibrium
                        Activity of water  =   1.000
                           Ionic strength  =  1.001e-007
                       Mass of water (kg)  =  2.861e-001
                 Total alkalinity (eq/kg)  =  1.082e-010
                    Total carbon (mol/kg)  =  0.000e+000
                       Total CO2 (mol/kg)  =  0.000e+000
                      Temperature (deg C)  =  25.000
                  Electrical balance (eq)  = -3.096e-011
 Percent error, 100*(Cat-|An|)/(Cat+|An|)  =  -0.05
                               Iterations  =   6
                                  Total H  = 3.175955e+001
                                  Total O  = 1.587977e+001

----------------------------Distribution of species----------------------------

                                                   Log       Log         Log 
   Species                 Molality    Activity  Molality  Activity     Gamma

   OH-                   1.001e-007  1.001e-007    -6.999    -7.000    -0.000
   H+                    1.000e-007  1.000e-007    -7.000    -7.000    -0.000
   H2O                   5.551e+001  1.000e+000     1.744    -0.000     0.000
H(0)            7.821e-016
   H2                    3.910e-016  3.910e-016   -15.408   -15.408     0.000
O(0)            0.000e+000
   O2                    0.000e+000  0.000e+000   -61.564   -61.564     0.000

------------------------------Saturation indices-------------------------------

	Phase               SI log IAP  log KT

	H2(g)           -12.22   30.78   43.00  H2
	H2O(g)           -1.51   -0.00    1.51  H2O
	O2(g)           -58.67  -61.56   -2.89  O2

------------------
End of simulation.
------------------

-------------------------------------
Reading input data for simulation 24.
-------------------------------------

	MIX 23 
		1001	0.286090	
	 SAVE SOLUTION	23	 
	 END
-----------------------------------------
Beginning of batch-reaction calculations.
-----------------------------------------

Reaction step 1.

Using mix 23.	

Mixture 23.	

	 2.861e-001 Solution 1001	initial solution                                       

-----------------------------Solution composition------------------------------

	Elements           Molality       Moles

	Pure water     

----------------------------Description of solution----------------------------

                                       pH  =   7.000      Charge balance
                                       pe  =  -0.871      Adjusted to redox equilibrium
                        Activity of water  =   1.000
                           Ionic strength  =  1.001e-007
                       Mass of water (kg)  =  2.861e-001
                 Total alkalinity (eq/kg)  =  1.082e-010
                    Total carbon (mol/kg)  =  0.000e+000
                       Total CO2 (mol/kg)  =  0.000e+000
                      Temperature (deg C)  =  25.000
                  Electrical balance (eq)  = -3.096e-011
 Percent error, 100*(Cat-|An|)/(Cat+|An|)  =  -0.05
                               Iterations  =   6
                                  Total H  = 3.175955e+001
                                  Total O  = 1.587977e+001

----------------------------Distribution of species----------------------------

                                                   Log       Log         Log 
   Species                 Molality    Activity  Molality  Activity     Gamma

   OH-                   1.001e-007  1.001e-007    -6.999    -7.000    -0.000
   H+                    1.000e-007  1.000e-007    -7.000    -7.000    -0.000
   H2O                   5.551e+001  1.000e+000     1.744    -0.000     0.000
H(0)            7.821e-016
   H2                    3.910e-016  3.910e-016   -15.408   -15.408     0.000
O(0)            0.000e+000
   O2                    0.000e+000  0.000e+000   -61.564   -61.564     0.000

------------------------------Saturation indices-------------------------------

	Phase               SI log IAP  log KT

	H2(g)           -12.22   30.78   43.00  H2
	H2O(g)           -1.51   -0.00    1.51  H2O
	O2(g)           -58.67  -61.56   -2.89  O2

------------------
End of simulation.
------------------

-------------------------------------
Reading input data for simulation 25.
-------------------------------------

	MIX 24 
		1001	0.286090	
	 SAVE SOLUTION	24	 
	 END
-----------------------------------------
Beginning of batch-reaction calculations.
-----------------------------------------

Reaction step 1.

Using mix 24.	

Mixture 24.	

	 2.861e-001 Solution 1001	initial solution                                       

-----------------------------Solution composition------------------------------

	Elements           Molality       Moles

	Pure water     

----------------------------Description of solution----------------------------

                                       pH  =   7.000      Charge balance
                                       pe  =  -0.871      Adjusted to redox equilibrium
                        Activity of water  =   1.000
                           Ionic strength  =  1.001e-007
                       Mass of water (kg)  =  2.861e-001
                 Total alkalinity (eq/kg)  =  1.082e-010
                    Total carbon (mol/kg)  =  0.000e+000
                       Total CO2 (mol/kg)  =  0.000e+000
                      Temperature (deg C)  =  25.000
                  Electrical balance (eq)  = -3.096e-011
 Percent error, 100*(Cat-|An|)/(Cat+|An|)  =  -0.05
                               Iterations  =   6
                                  Total H  = 3.175955e+001
                                  Total O  = 1.587977e+001

----------------------------Distribution of species----------------------------

                                                   Log       Log         Log 
   Species                 Molality    Activity  Molality  Activity     Gamma

   OH-                   1.001e-007  1.001e-007    -6.999    -7.000    -0.000
   H+                    1.000e-007  1.000e-007    -7.000    -7.000    -0.000
   H2O                   5.551e+001  1.000e+000     1.744    -0.000     0.000
H(0)            7.821e-016
   H2                    3.910e-016  3.910e-016   -15.408   -15.408     0.000
O(0)            0.000e+000
   O2                    0.000e+000  0.000e+000   -61.564   -61.564     0.000

------------------------------Saturation indices-------------------------------

	Phase               SI log IAP  log KT

	H2(g)           -12.22   30.78   43.00  H2
	H2O(g)           -1.51   -0.00    1.51  H2O
	O2(g)           -58.67  -61.56   -2.89  O2

------------------
End of simulation.
------------------

-------------------------------------
Reading input data for simulation 26.
-------------------------------------

	MIX 25 
		1001	0.286090	
	 SAVE SOLUTION	25	 
	 END
-----------------------------------------
Beginning of batch-reaction calculations.
-----------------------------------------

Reaction step 1.

Using mix 25.	

Mixture 25.	

	 2.861e-001 Solution 1001	initial solution                                       

-----------------------------Solution composition------------------------------

	Elements           Molality       Moles

	Pure water     

----------------------------Description of solution----------------------------

                                       pH  =   7.000      Charge balance
                                       pe  =  -0.871      Adjusted to redox equilibrium
                        Activity of water  =   1.000
                           Ionic strength  =  1.001e-007
                       Mass of water (kg)  =  2.861e-001
                 Total alkalinity (eq/kg)  =  1.082e-010
                    Total carbon (mol/kg)  =  0.000e+000
                       Total CO2 (mol/kg)  =  0.000e+000
                      Temperature (deg C)  =  25.000
                  Electrical balance (eq)  = -3.096e-011
 Percent error, 100*(Cat-|An|)/(Cat+|An|)  =  -0.05
                               Iterations  =   6
                                  Total H  = 3.175955e+001
                                  Total O  = 1.587977e+001

----------------------------Distribution of species----------------------------

                                                   Log       Log         Log 
   Species                 Molality    Activity  Molality  Activity     Gamma

   OH-                   1.001e-007  1.001e-007    -6.999    -7.000    -0.000
   H+                    1.000e-007  1.000e-007    -7.000    -7.000    -0.000
   H2O                   5.551e+001  1.000e+000     1.744    -0.000     0.000
H(0)            7.821e-016
   H2                    3.910e-016  3.910e-016   -15.408   -15.408     0.000
O(0)            0.000e+000
   O2                    0.000e+000  0.000e+000   -61.564   -61.564     0.000

------------------------------Saturation indices-------------------------------

	Phase               SI log IAP  log KT

	H2(g)           -12.22   30.78   43.00  H2
	H2O(g)           -1.51   -0.00    1.51  H2O
	O2(g)           -58.67  -61.56   -2.89  O2

------------------
End of simulation.
------------------

-------------------------------------
Reading input data for simulation 27.
-------------------------------------

	MIX 26 
		1001	0.286090	
	 SAVE SOLUTION	26	 
	 END
-----------------------------------------
Beginning of batch-reaction calculations.
-----------------------------------------

Reaction step 1.

Using mix 26.	

Mixture 26.	

	 2.861e-001 Solution 1001	initial solution                                       

-----------------------------Solution composition------------------------------

	Elements           Molality       Moles

	Pure water     

----------------------------Description of solution----------------------------

                                       pH  =   7.000      Charge balance
                                       pe  =  -0.871      Adjusted to redox equilibrium
                        Activity of water  =   1.000
                           Ionic strength  =  1.001e-007
                       Mass of water (kg)  =  2.861e-001
                 Total alkalinity (eq/kg)  =  1.082e-010
                    Total carbon (mol/kg)  =  0.000e+000
                       Total CO2 (mol/kg)  =  0.000e+000
                      Temperature (deg C)  =  25.000
                  Electrical balance (eq)  = -3.096e-011
 Percent error, 100*(Cat-|An|)/(Cat+|An|)  =  -0.05
                               Iterations  =   6
                                  Total H  = 3.175955e+001
                                  Total O  = 1.587977e+001

----------------------------Distribution of species----------------------------

                                                   Log       Log         Log 
   Species                 Molality    Activity  Molality  Activity     Gamma

   OH-                   1.001e-007  1.001e-007    -6.999    -7.000    -0.000
   H+                    1.000e-007  1.000e-007    -7.000    -7.000    -0.000
   H2O                   5.551e+001  1.000e+000     1.744    -0.000     0.000
H(0)            7.821e-016
   H2                    3.910e-016  3.910e-016   -15.408   -15.408     0.000
O(0)            0.000e+000
   O2                    0.000e+000  0.000e+000   -61.564   -61.564     0.000

------------------------------Saturation indices-------------------------------

	Phase               SI log IAP  log KT

	H2(g)           -12.22   30.78   43.00  H2
	H2O(g)           -1.51   -0.00    1.51  H2O
	O2(g)           -58.67  -61.56   -2.89  O2

------------------
End of simulation.
------------------

-------------------------------------
Reading input data for simulation 28.
-------------------------------------

	MIX 27 
		1001	0.286090	
	 SAVE SOLUTION	27	 
	 END
-----------------------------------------
Beginning of batch-reaction calculations.
-----------------------------------------

Reaction step 1.

Using mix 27.	

Mixture 27.	

	 2.861e-001 Solution 1001	initial solution                                       

-----------------------------Solution composition------------------------------

	Elements           Molality       Moles

	Pure water     

----------------------------Description of solution----------------------------

                                       pH  =   7.000      Charge balance
                                       pe  =  -0.871      Adjusted to redox equilibrium
                        Activity of water  =   1.000
                           Ionic strength  =  1.001e-007
                       Mass of water (kg)  =  2.861e-001
                 Total alkalinity (eq/kg)  =  1.082e-010
                    Total carbon (mol/kg)  =  0.000e+000
                       Total CO2 (mol/kg)  =  0.000e+000
                      Temperature (deg C)  =  25.000
                  Electrical balance (eq)  = -3.096e-011
 Percent error, 100*(Cat-|An|)/(Cat+|An|)  =  -0.05
                               Iterations  =   6
                                  Total H  = 3.175955e+001
                                  Total O  = 1.587977e+001

----------------------------Distribution of species----------------------------

                                                   Log       Log         Log 
   Species                 Molality    Activity  Molality  Activity     Gamma

   OH-                   1.001e-007  1.001e-007    -6.999    -7.000    -0.000
   H+                    1.000e-007  1.000e-007    -7.000    -7.000    -0.000
   H2O                   5.551e+001  1.000e+000     1.744    -0.000     0.000
H(0)            7.821e-016
   H2                    3.910e-016  3.910e-016   -15.408   -15.408     0.000
O(0)            0.000e+000
   O2                    0.000e+000  0.000e+000   -61.564   -61.564     0.000

------------------------------Saturation indices-------------------------------

	Phase               SI log IAP  log KT

	H2(g)           -12.22   30.78   43.00  H2
	H2O(g)           -1.51   -0.00    1.51  H2O
	O2(g)           -58.67  -61.56   -2.89  O2

------------------
End of simulation.
------------------

-------------------------------------
Reading input data for simulation 29.
-------------------------------------

	MIX 28 
		1001	0.286090	
	 SAVE SOLUTION	28	 
	 END
-----------------------------------------
Beginning of batch-reaction calculations.
-----------------------------------------

Reaction step 1.

Using mix 28.	

Mixture 28.	

	 2.861e-001 Solution 1001	initial solution                                       

-----------------------------Solution composition------------------------------

	Elements           Molality       Moles

	Pure water     

----------------------------Description of solution----------------------------

                                       pH  =   7.000      Charge balance
                                       pe  =  -0.871      Adjusted to redox equilibrium
                        Activity of water  =   1.000
                           Ionic strength  =  1.001e-007
                       Mass of water (kg)  =  2.861e-001
                 Total alkalinity (eq/kg)  =  1.082e-010
                    Total carbon (mol/kg)  =  0.000e+000
                       Total CO2 (mol/kg)  =  0.000e+000
                      Temperature (deg C)  =  25.000
                  Electrical balance (eq)  = -3.096e-011
 Percent error, 100*(Cat-|An|)/(Cat+|An|)  =  -0.05
                               Iterations  =   6
                                  Total H  = 3.175955e+001
                                  Total O  = 1.587977e+001

----------------------------Distribution of species----------------------------

                                                   Log       Log         Log 
   Species                 Molality    Activity  Molality  Activity     Gamma

   OH-                   1.001e-007  1.001e-007    -6.999    -7.000    -0.000
[...]
                       Mass of water (kg)  =  2.861e-001
                 Total alkalinity (eq/kg)  =  1.082e-010
                    Total carbon (mol/kg)  =  0.000e+000
                       Total CO2 (mol/kg)  =  0.000e+000
                      Temperature (deg C)  =  25.000
                  Electrical balance (eq)  = -3.096e-011
 Percent error, 100*(Cat-|An|)/(Cat+|An|)  =  -0.05
                               Iterations  =   6
                                  Total H  = 3.175955e+001
                                  Total O  = 1.587977e+001

----------------------------Distribution of species----------------------------

                                                   Log       Log         Log 
   Species                 Molality    Activity  Molality  Activity     Gamma

   OH-                   1.001e-007  1.001e-007    -6.999    -7.000    -0.000
   H+                    1.000e-007  1.000e-007    -7.000    -7.000    -0.000
   H2O                   5.551e+001  1.000e+000     1.744    -0.000     0.000
H(0)            7.821e-016
   H2                    3.910e-016  3.910e-016   -15.408   -15.408     0.000
O(0)            0.000e+000
   O2                    0.000e+000  0.000e+000   -61.564   -61.564     0.000

------------------------------Saturation indices-------------------------------

	Phase               SI log IAP  log KT

	H2(g)           -12.22   30.78   43.00  H2
	H2O(g)           -1.51   -0.00    1.51  H2O
	O2(g)           -58.67  -61.56   -2.89  O2

------------------
End of simulation.
------------------

-------------------------------------
Reading input data for simulation 97.
-------------------------------------

	MIX 96 
		1001	0.286090	
	 SAVE SOLUTION	96	 
	 END
-----------------------------------------
Beginning of batch-reaction calculations.
-----------------------------------------

Reaction step 1.

Using mix 96.	

Mixture 96.	

	 2.861e-001 Solution 1001	initial solution                                       

-----------------------------Solution composition------------------------------

	Elements           Molality       Moles

	Pure water     

----------------------------Description of solution----------------------------

                                       pH  =   7.000      Charge balance
                                       pe  =  -0.871      Adjusted to redox equilibrium
                        Activity of water  =   1.000
                           Ionic strength  =  1.001e-007
                       Mass of water (kg)  =  2.861e-001
                 Total alkalinity (eq/kg)  =  1.082e-010
                    Total carbon (mol/kg)  =  0.000e+000
                       Total CO2 (mol/kg)  =  0.000e+000
                      Temperature (deg C)  =  25.000
                  Electrical balance (eq)  = -3.096e-011
 Percent error, 100*(Cat-|An|)/(Cat+|An|)  =  -0.05
                               Iterations  =   6
                                  Total H  = 3.175955e+001
                                  Total O  = 1.587977e+001

----------------------------Distribution of species----------------------------

                                                   Log       Log         Log 
   Species                 Molality    Activity  Molality  Activity     Gamma

   OH-                   1.001e-007  1.001e-007    -6.999    -7.000    -0.000
   H+                    1.000e-007  1.000e-007    -7.000    -7.000    -0.000
   H2O                   5.551e+001  1.000e+000     1.744    -0.000     0.000
H(0)            7.821e-016
   H2                    3.910e-016  3.910e-016   -15.408   -15.408     0.000
O(0)            0.000e+000
   O2                    0.000e+000  0.000e+000   -61.564   -61.564     0.000

------------------------------Saturation indices-------------------------------

	Phase               SI log IAP  log KT

	H2(g)           -12.22   30.78   43.00  H2
	H2O(g)           -1.51   -0.00    1.51  H2O
	O2(g)           -58.67  -61.56   -2.89  O2

------------------
End of simulation.
------------------

-------------------------------------
Reading input data for simulation 98.
-------------------------------------

	MIX 97 
		1001	0.286090	
	 SAVE SOLUTION	97	 
	 END
-----------------------------------------
Beginning of batch-reaction calculations.
-----------------------------------------

Reaction step 1.

Using mix 97.	

Mixture 97.	

	 2.861e-001 Solution 1001	initial solution                                       

-----------------------------Solution composition------------------------------

	Elements           Molality       Moles

	Pure water     

----------------------------Description of solution----------------------------

                                       pH  =   7.000      Charge balance
                                       pe  =  -0.871      Adjusted to redox equilibrium
                        Activity of water  =   1.000
                           Ionic strength  =  1.001e-007
                       Mass of water (kg)  =  2.861e-001
                 Total alkalinity (eq/kg)  =  1.082e-010
                    Total carbon (mol/kg)  =  0.000e+000
                       Total CO2 (mol/kg)  =  0.000e+000
                      Temperature (deg C)  =  25.000
                  Electrical balance (eq)  = -3.096e-011
 Percent error, 100*(Cat-|An|)/(Cat+|An|)  =  -0.05
                               Iterations  =   6
                                  Total H  = 3.175955e+001
                                  Total O  = 1.587977e+001

----------------------------Distribution of species----------------------------

                                                   Log       Log         Log 
   Species                 Molality    Activity  Molality  Activity     Gamma

   OH-                   1.001e-007  1.001e-007    -6.999    -7.000    -0.000
   H+                    1.000e-007  1.000e-007    -7.000    -7.000    -0.000
   H2O                   5.551e+001  1.000e+000     1.744    -0.000     0.000
H(0)            7.821e-016
   H2                    3.910e-016  3.910e-016   -15.408   -15.408     0.000
O(0)            0.000e+000
   O2                    0.000e+000  0.000e+000   -61.564   -61.564     0.000

------------------------------Saturation indices-------------------------------

	Phase               SI log IAP  log KT

	H2(g)           -12.22   30.78   43.00  H2
	H2O(g)           -1.51   -0.00    1.51  H2O
	O2(g)           -58.67  -61.56   -2.89  O2

------------------
End of simulation.
------------------

-------------------------------------
Reading input data for simulation 99.
-------------------------------------

	MIX 98 
		1001	0.286090	
	 SAVE SOLUTION	98	 
	 END
-----------------------------------------
Beginning of batch-reaction calculations.
-----------------------------------------

Reaction step 1.

Using mix 98.	

Mixture 98.	

	 2.861e-001 Solution 1001	initial solution                                       

-----------------------------Solution composition------------------------------

	Elements           Molality       Moles

	Pure water     

----------------------------Description of solution----------------------------

                                       pH  =   7.000      Charge balance
                                       pe  =  -0.871      Adjusted to redox equilibrium
                        Activity of water  =   1.000
                           Ionic strength  =  1.001e-007
                       Mass of water (kg)  =  2.861e-001
                 Total alkalinity (eq/kg)  =  1.082e-010
                    Total carbon (mol/kg)  =  0.000e+000
                       Total CO2 (mol/kg)  =  0.000e+000
                      Temperature (deg C)  =  25.000
                  Electrical balance (eq)  = -3.096e-011
 Percent error, 100*(Cat-|An|)/(Cat+|An|)  =  -0.05
                               Iterations  =   6
                                  Total H  = 3.175955e+001
                                  Total O  = 1.587977e+001

----------------------------Distribution of species----------------------------

                                                   Log       Log         Log 
   Species                 Molality    Activity  Molality  Activity     Gamma

   OH-                   1.001e-007  1.001e-007    -6.999    -7.000    -0.000
   H+                    1.000e-007  1.000e-007    -7.000    -7.000    -0.000
   H2O                   5.551e+001  1.000e+000     1.744    -0.000     0.000
H(0)            7.821e-016
   H2                    3.910e-016  3.910e-016   -15.408   -15.408     0.000
O(0)            0.000e+000
   O2                    0.000e+000  0.000e+000   -61.564   -61.564     0.000

------------------------------Saturation indices-------------------------------

	Phase               SI log IAP  log KT

	H2(g)           -12.22   30.78   43.00  H2
	H2O(g)           -1.51   -0.00    1.51  H2O
	O2(g)           -58.67  -61.56   -2.89  O2

------------------
End of simulation.
------------------

--------------------------------------
Reading input data for simulation 100.
--------------------------------------

	MIX 99 
		1001	0.286090	
	 SAVE SOLUTION	99	 
	 END
-----------------------------------------
Beginning of batch-reaction calculations.
-----------------------------------------

Reaction step 1.

Using mix 99.	

Mixture 99.	

	 2.861e-001 Solution 1001	initial solution                                       

-----------------------------Solution composition------------------------------

	Elements           Molality       Moles

	Pure water     

----------------------------Description of solution----------------------------

                                       pH  =   7.000      Charge balance
                                       pe  =  -0.871      Adjusted to redox equilibrium
                        Activity of water  =   1.000
                           Ionic strength  =  1.001e-007
                       Mass of water (kg)  =  2.861e-001
                 Total alkalinity (eq/kg)  =  1.082e-010
                    Total carbon (mol/kg)  =  0.000e+000
                       Total CO2 (mol/kg)  =  0.000e+000
                      Temperature (deg C)  =  25.000
                  Electrical balance (eq)  = -3.096e-011
 Percent error, 100*(Cat-|An|)/(Cat+|An|)  =  -0.05
                               Iterations  =   6
                                  Total H  = 3.175955e+001
                                  Total O  = 1.587977e+001

----------------------------Distribution of species----------------------------

                                                   Log       Log         Log 
   Species                 Molality    Activity  Molality  Activity     Gamma

   OH-                   1.001e-007  1.001e-007    -6.999    -7.000    -0.000
   H+                    1.000e-007  1.000e-007    -7.000    -7.000    -0.000
   H2O                   5.551e+001  1.000e+000     1.744    -0.000     0.000
H(0)            7.821e-016
   H2                    3.910e-016  3.910e-016   -15.408   -15.408     0.000
O(0)            0.000e+000
   O2                    0.000e+000  0.000e+000   -61.564   -61.564     0.000

------------------------------Saturation indices-------------------------------

	Phase               SI log IAP  log KT

	H2(g)           -12.22   30.78   43.00  H2
	H2O(g)           -1.51   -0.00    1.51  H2O
	O2(g)           -58.67  -61.56   -2.89  O2

------------------
End of simulation.
------------------

--------------------------------------
Reading input data for simulation 101.
--------------------------------------

	MIX 100 
		1001	0.286090	
	 SAVE SOLUTION	100	 
	 END
-----------------------------------------
Beginning of batch-reaction calculations.
-----------------------------------------

Reaction step 1.

Using mix 100.	

Mixture 100.	

	 2.861e-001 Solution 1001	initial solution                                       

-----------------------------Solution composition------------------------------

	Elements           Molality       Moles

	Pure water     

----------------------------Description of solution----------------------------

                                       pH  =   7.000      Charge balance
                                       pe  =  -0.871      Adjusted to redox equilibrium
                        Activity of water  =   1.000
                           Ionic strength  =  1.001e-007
                       Mass of water (kg)  =  2.861e-001
                 Total alkalinity (eq/kg)  =  1.082e-010
                    Total carbon (mol/kg)  =  0.000e+000
                       Total CO2 (mol/kg)  =  0.000e+000
                      Temperature (deg C)  =  25.000
                  Electrical balance (eq)  = -3.096e-011
 Percent error, 100*(Cat-|An|)/(Cat+|An|)  =  -0.05
                               Iterations  =   6
                                  Total H  = 3.175955e+001
                                  Total O  = 1.587977e+001

----------------------------Distribution of species----------------------------

                                                   Log       Log         Log 
   Species                 Molality    Activity  Molality  Activity     Gamma

   OH-                   1.001e-007  1.001e-007    -6.999    -7.000    -0.000
   H+                    1.000e-007  1.000e-007    -7.000    -7.000    -0.000
   H2O                   5.551e+001  1.000e+000     1.744    -0.000     0.000
H(0)            7.821e-016
   H2                    3.910e-016  3.910e-016   -15.408   -15.408     0.000
O(0)            0.000e+000
   O2                    0.000e+000  0.000e+000   -61.564   -61.564     0.000

------------------------------Saturation indices-------------------------------

	Phase               SI log IAP  log KT

	H2(g)           -12.22   30.78   43.00  H2
	H2O(g)           -1.51   -0.00    1.51  H2O
	O2(g)           -58.67  -61.56   -2.89  O2

------------------
End of simulation.
------------------

--------------------------------------
Reading input data for simulation 102.
--------------------------------------

	MIX 101 
		1001	0.286090	
	 SAVE SOLUTION	101	 
	 END
-----------------------------------------
Beginning of batch-reaction calculations.
-----------------------------------------

Reaction step 1.

Using mix 101.	

Mixture 101.	

	 2.861e-001 Solution 1001	initial solution                                       

-----------------------------Solution composition------------------------------

	Elements           Molality       Moles

	Pure water     

----------------------------Description of solution----------------------------

                                       pH  =   7.000      Charge balance
                                       pe  =  -0.871      Adjusted to redox equilibrium
                        Activity of water  =   1.000
                           Ionic strength  =  1.001e-007
                       Mass of water (kg)  =  2.861e-001
                 Total alkalinity (eq/kg)  =  1.082e-010
                    Total carbon (mol/kg)  =  0.000e+000
                       Total CO2 (mol/kg)  =  0.000e+000
                      Temperature (deg C)  =  25.000
                  Electrical balance (eq)  = -3.096e-011
 Percent error, 100*(Cat-|An|)/(Cat+|An|)  =  -0.05
                               Iterations  =   6
                                  Total H  = 3.175955e+001
                                  Total O  = 1.587977e+001

----------------------------Distribution of species----------------------------

                                                   Log       Log         Log 
   Species                 Molality    Activity  Molality  Activity     Gamma

   OH-                   1.001e-007  1.001e-007    -6.999    -7.000    -0.000
   H+                    1.000e-007  1.000e-007    -7.000    -7.000    -0.000
   H2O                   5.551e+001  1.000e+000     1.744    -0.000     0.000
H(0)            7.821e-016
   H2                    3.910e-016  3.910e-016   -15.408   -15.408     0.000
O(0)            0.000e+000
   O2                    0.000e+000  0.000e+000   -61.564   -61.564     0.000

------------------------------Saturation indices-------------------------------

	Phase               SI log IAP  log KT

	H2(g)           -12.22   30.78   43.00  H2
	H2O(g)           -1.51   -0.00    1.51  H2O
	O2(g)           -58.67  -61.56   -2.89  O2

------------------
End of simulation.
------------------

--------------------------------------
Reading input data for simulation 103.
--------------------------------------

	SURFACE 1-101 @Layer 1@
	        equilibrate with solution 1001
	        no_edl true
	        Sora 1e100 1 1e100
	        Sorb 1e100 1 1e100
	        Sorc 1e100 1 1e100
	KINETICS 1-101 @Layer 1@
	  degrad_conta
	   formula Conta 1 Contb -1
	 parms 0.005
	  degrad_contb
	   formula Contb 1 Contc -1
	 parms 0.06
	  degrad_contc
	   formula Contc 1
	 parms 0.02
	PRINT
	 reset false
	 warnings 500
	TRANSPORT
	 cells 101
	 gnuplot true


--------------------------------
Printing G N U P L O T templates
--------------------------------

  Printing G N U P L O T template file: C:\ussl\HYDRUS-1D v4\Examples\HP1\SEASONCHAIN\ts_pH.plt
  Printing G N U P L O T template file: C:\ussl\HYDRUS-1D v4\Examples\HP1\SEASONCHAIN\pd_pH.plt
  Printing G N U P L O T template file: C:\ussl\HYDRUS-1D v4\Examples\HP1\SEASONCHAIN\ts_pe.plt
  Printing G N U P L O T template file: C:\ussl\HYDRUS-1D v4\Examples\HP1\SEASONCHAIN\pd_pe.plt
  Printing G N U P L O T template file: C:\ussl\HYDRUS-1D v4\Examples\HP1\SEASONCHAIN\ts_tot_Conta.plt
  Printing G N U P L O T template file: C:\ussl\HYDRUS-1D v4\Examples\HP1\SEASONCHAIN\pd_tot_Conta.plt
  Printing G N U P L O T template file: C:\ussl\HYDRUS-1D v4\Examples\HP1\SEASONCHAIN\ts_tot_Contb.plt
  Printing G N U P L O T template file: C:\ussl\HYDRUS-1D v4\Examples\HP1\SEASONCHAIN\pd_tot_Contb.plt
  Printing G N U P L O T template file: C:\ussl\HYDRUS-1D v4\Examples\HP1\SEASONCHAIN\ts_tot_Contc.plt
  Printing G N U P L O T template file: C:\ussl\HYDRUS-1D v4\Examples\HP1\SEASONCHAIN\pd_tot_Contc.plt
  Printing G N U P L O T template file: C:\ussl\HYDRUS-1D v4\Examples\HP1\SEASONCHAIN\ts_mol_Conta.plt
  Printing G N U P L O T template file: C:\ussl\HYDRUS-1D v4\Examples\HP1\SEASONCHAIN\pd_mol_Conta.plt
  Printing G N U P L O T template file: C:\ussl\HYDRUS-1D v4\Examples\HP1\SEASONCHAIN\ts_mol_Contb.plt
  Printing G N U P L O T template file: C:\ussl\HYDRUS-1D v4\Examples\HP1\SEASONCHAIN\pd_mol_Contb.plt
  Printing G N U P L O T template file: C:\ussl\HYDRUS-1D v4\Examples\HP1\SEASONCHAIN\ts_mol_Contc.plt
  Printing G N U P L O T template file: C:\ussl\HYDRUS-1D v4\Examples\HP1\SEASONCHAIN\pd_mol_Contc.plt
  Printing G N U P L O T template file: C:\ussl\HYDRUS-1D v4\Examples\HP1\SEASONCHAIN\ts_mol_SoraConta.plt
  Printing G N U P L O T template file: C:\ussl\HYDRUS-1D v4\Examples\HP1\SEASONCHAIN\pd_mol_SoraConta.plt
  Printing G N U P L O T template file: C:\ussl\HYDRUS-1D v4\Examples\HP1\SEASONCHAIN\ts_mol_SorbContb.plt
  Printing G N U P L O T template file: C:\ussl\HYDRUS-1D v4\Examples\HP1\SEASONCHAIN\pd_mol_SorbContb.plt
  Printing G N U P L O T template file: C:\ussl\HYDRUS-1D v4\Examples\HP1\SEASONCHAIN\ts_mol_SorcContc.plt
  Printing G N U P L O T template file: C:\ussl\HYDRUS-1D v4\Examples\HP1\SEASONCHAIN\pd_mol_SorcContc.plt


--------------------------------
STARTING TRANSPORT CALCULATIONS
--------------------------------

WARNING: Negative concentration for node 1
