-----------------------------
VERSION AND FILE INFORMATION.
-----------------------------

HP1-2.1.002 based on PHREEQC-2.15.0-2697 and HYDRUS1D-4.0 (released on November 02, 2009).

PROJECT FOLDER: C:\ussl\HYDRUS-1D v4\Examples\HP1\MINDIS
    INPUT FILE: C:\ussl\HYDRUS-1D v4\Examples\HP1\MINDIS\phreeqc.in
   OUTPUT FILE: C:\ussl\HYDRUS-1D v4\Examples\HP1\MINDIS\phreeqc.out
 DATABASE FILE: C:\Program Files\PC-Progress\HYDRUS-1D 4.xx\HP1 Databases\PHREEQC.DAT

------------------
Reading data base.
------------------

	SOLUTION_MASTER_SPECIES
	SOLUTION_SPECIES
	PHASES
	EXCHANGE_MASTER_SPECIES
	EXCHANGE_SPECIES
	SURFACE_MASTER_SPECIES
	SURFACE_SPECIES
	RATES
	END
------------------------------------
Reading input data for simulation 1.
------------------------------------

	TITLE : Transport with mineral dissolution
	SOLUTION_MASTER_SPECIES
	SOLUTION_SPECIES
	PHASES
	EXCHANGE_MASTER_SPECIES
	EXCHANGE_SPECIES
	SURFACE_MASTER_SPECIES
	SURFACE_SPECIES
	RATES
	SELECTED_OUTPUT
	 file MINDIS.hse
	 reset false 
	 solution true 
	 distance true 
	 time true 
	 ph true 
	 pe true 
	selected_output
	totals Si Na Al
	equilibrium_phases gibbsite SiO2(a)
	solution 1001 initial solution
	 units            mol/kgw
	 pH               7 charge
	 Si  1.76E-3
	 Al 8.87E-3
	 Na 1E-12
	solution 3001 boundary solution
	 units mol/kgw
	 pH 7 charge
	 Si 5E-007
	 Al 1E-06
	 Na 0.001
	END
-----
TITLE
-----

 : Transport with mineral dissolution

-------------------------------------------
Beginning of initial solution calculations.
-------------------------------------------

Initial solution 1001.	initial solution

-----------------------------Solution composition------------------------------

	Elements           Molality       Moles

	Al               8.870e-003  8.870e-003
	Na               1.000e-012  1.000e-012
	Si               1.760e-003  1.760e-003

----------------------------Description of solution----------------------------

                                       pH  =   6.312      Charge balance
                                       pe  =   4.000    
                        Activity of water  =   1.000
                           Ionic strength  =  4.419e-003
                       Mass of water (kg)  =  1.000e+000
                 Total alkalinity (eq/kg)  =  2.661e-002
                    Total carbon (mol/kg)  =  0.000e+000
                       Total CO2 (mol/kg)  =  0.000e+000
                      Temperature (deg C)  =  25.000
                  Electrical balance (eq)  =  9.645e-014
 Percent error, 100*(Cat-|An|)/(Cat+|An|)  =   0.00
                               Iterations  =   5
                                  Total H  = 1.110461e+002
                                  Total O  = 5.553987e+001

----------------------------Distribution of species----------------------------

                                                   Log       Log         Log 
   Species                 Molality    Activity  Molality  Activity     Gamma

   H+                    5.200e-007  4.872e-007    -6.284    -6.312    -0.028
   OH-                   2.209e-008  2.054e-008    -7.656    -7.687    -0.031
   H2O                   5.551e+001  9.998e-001     1.744    -0.000     0.000
Al              8.870e-003
   Al(OH)4-              4.095e-003  3.813e-003    -2.388    -2.419    -0.031
   Al(OH)2+              3.502e-003  3.260e-003    -2.456    -2.487    -0.031
   Al(OH)3               9.848e-004  9.858e-004    -3.007    -3.006     0.000
   AlOH+2                2.699e-004  2.027e-004    -3.569    -3.693    -0.124
   Al+3                  1.788e-005  9.945e-006    -4.748    -5.002    -0.255
H(0)            3.358e-024
   H2                    1.679e-024  1.681e-024   -23.775   -23.775     0.000
Na              1.000e-012
   Na+                   1.000e-012  9.315e-013   -12.000   -12.031    -0.031
   NaOH                  1.262e-020  1.263e-020   -19.899   -19.899     0.000
O(0)            0.000e+000
   O2                    0.000e+000  0.000e+000   -44.832   -44.831     0.000
Si              1.760e-003
   H4SiO4                1.759e-003  1.761e-003    -2.755    -2.754     0.000
   H3SiO4-               5.725e-007  5.330e-007    -6.242    -6.273    -0.031
   H2SiO4-2              9.907e-014  7.442e-014   -13.004   -13.128    -0.124

------------------------------Saturation indices-------------------------------

	Phase               SI log IAP  log KT

	Al(OH)3(a)        3.13   13.93   10.80  Al(OH)3
	Albite           -4.71  -22.71  -18.00  NaAlSi3O8
	Chalcedony        0.80   -2.75   -3.55  SiO2
	Gibbsite          5.82   13.93    8.11  Al(OH)3
	H2(g)           -20.58   22.42   43.00  H2
	H2O(g)           -1.51   -0.00    1.51  H2O
	Kaolinite        14.93   22.36    7.43  Al2Si2O5(OH)4
	O2(g)           -41.94  -44.83   -2.89  O2
	Quartz            1.20   -2.75   -3.96  SiO2
	SiO2(a)          -0.04   -2.75   -2.71  SiO2

Initial solution 3001.	boundary solution

-----------------------------Solution composition------------------------------

	Elements           Molality       Moles

	Al               1.000e-006  1.000e-006
	Na               1.000e-003  1.000e-003
	Si               5.000e-007  5.000e-007

----------------------------Description of solution----------------------------

                                       pH  =  10.983      Charge balance
                                       pe  =   4.000    
                        Activity of water  =   1.000
                           Ionic strength  =  9.994e-004
                       Mass of water (kg)  =  1.000e+000
                 Total alkalinity (eq/kg)  =  1.003e-003
                    Total carbon (mol/kg)  =  0.000e+000
                       Total CO2 (mol/kg)  =  0.000e+000
                      Temperature (deg C)  =  25.000
                  Electrical balance (eq)  = -1.429e-016
 Percent error, 100*(Cat-|An|)/(Cat+|An|)  =  -0.00
                               Iterations  =  10
                                  Total H  = 1.110134e+002
                                  Total O  = 5.550722e+001

----------------------------Distribution of species----------------------------

                                                   Log       Log         Log 
   Species                 Molality    Activity  Molality  Activity     Gamma

   OH-                   9.979e-004  9.628e-004    -3.001    -3.016    -0.016
   H+                    1.076e-011  1.040e-011   -10.968   -10.983    -0.015
   H2O                   5.551e+001  1.000e+000     1.744    -0.000     0.000
Al              1.000e-006
   Al(OH)4-              1.000e-006  9.650e-007    -6.000    -6.015    -0.015
   Al(OH)3               5.322e-012  5.324e-012   -11.274   -11.274     0.000
   Al(OH)2+              3.893e-016  3.757e-016   -15.410   -15.425    -0.015
   AlOH+2                5.746e-022  4.983e-022   -21.241   -21.302    -0.062
   Al+3                  7.077e-028  5.216e-028   -27.150   -27.283    -0.133
H(0)            1.530e-033
   H2                    7.651e-034  7.652e-034   -33.116   -33.116     0.000
Na              1.000e-003
   Na+                   9.994e-004  9.646e-004    -3.000    -3.016    -0.015
   NaOH                  6.128e-007  6.130e-007    -6.213    -6.213     0.000
O(0)            1.423e-026
   O2                    7.117e-027  7.118e-027   -26.148   -26.148     0.000
Si              5.000e-007
   H3SiO4-               4.650e-007  4.487e-007    -6.333    -6.348    -0.015
   H4SiO4                3.163e-008  3.164e-008    -7.500    -7.500     0.000
   H2SiO4-2              3.385e-009  2.936e-009    -8.470    -8.532    -0.062

------------------------------Saturation indices-------------------------------

	Phase               SI log IAP  log KT

	Al(OH)3(a)       -5.13    5.67   10.80  Al(OH)3
	Albite          -13.53  -31.53  -18.00  NaAlSi3O8
	Chalcedony       -3.95   -7.50   -3.55  SiO2
	Gibbsite         -2.44    5.67    8.11  Al(OH)3
	H2(g)           -29.92   13.07   43.00  H2
	H2O(g)           -1.51   -0.00    1.51  H2O
	Kaolinite       -11.10   -3.67    7.43  Al2Si2O5(OH)4
	O2(g)           -23.26  -26.15   -2.89  O2
	Quartz           -3.54   -7.50   -3.96  SiO2
	SiO2(a)          -4.79   -7.50   -2.71  SiO2

------------------
End of simulation.
------------------

------------------------------------
Reading input data for simulation 2.
------------------------------------

	MIX 1 
		1001	0.500000	
	 SAVE SOLUTION	1	 
	 END
-----------------------------------------
Beginning of batch-reaction calculations.
-----------------------------------------

Reaction step 1.

Using mix 1.	

Mixture 1.	

	 5.000e-001 Solution 1001	initial solution                                       

-----------------------------Solution composition------------------------------

	Elements           Molality       Moles

	Al               8.870e-003  4.435e-003
	Na               1.000e-012  5.000e-013
	Si               1.760e-003  8.800e-004

----------------------------Description of solution----------------------------

                                       pH  =   6.312      Charge balance
                                       pe  =   4.000      Adjusted to redox equilibrium
                        Activity of water  =   1.000
                           Ionic strength  =  4.419e-003
                       Mass of water (kg)  =  5.000e-001
                 Total alkalinity (eq/kg)  =  2.661e-002
                    Total carbon (mol/kg)  =  0.000e+000
                       Total CO2 (mol/kg)  =  0.000e+000
                      Temperature (deg C)  =  25.000
                  Electrical balance (eq)  =  4.822e-014
 Percent error, 100*(Cat-|An|)/(Cat+|An|)  =   0.00
                               Iterations  =   0
                                  Total H  = 5.552304e+001
                                  Total O  = 2.776993e+001

----------------------------Distribution of species----------------------------

                                                   Log       Log         Log 
   Species                 Molality    Activity  Molality  Activity     Gamma

   H+                    5.200e-007  4.872e-007    -6.284    -6.312    -0.028
   OH-                   2.209e-008  2.054e-008    -7.656    -7.687    -0.031
   H2O                   5.551e+001  9.998e-001     1.744    -0.000     0.000
Al              8.870e-003
   Al(OH)4-              4.095e-003  3.813e-003    -2.388    -2.419    -0.031
   Al(OH)2+              3.502e-003  3.260e-003    -2.456    -2.487    -0.031
   Al(OH)3               9.848e-004  9.858e-004    -3.007    -3.006     0.000
   AlOH+2                2.699e-004  2.027e-004    -3.569    -3.693    -0.124
   Al+3                  1.788e-005  9.945e-006    -4.748    -5.002    -0.255
H(0)            3.358e-024
   H2                    1.679e-024  1.681e-024   -23.775   -23.775     0.000
Na              1.000e-012
   Na+                   1.000e-012  9.315e-013   -12.000   -12.031    -0.031
   NaOH                  1.262e-020  1.263e-020   -19.899   -19.899     0.000
O(0)            0.000e+000
   O2                    0.000e+000  0.000e+000   -44.832   -44.831     0.000
Si              1.760e-003
   H4SiO4                1.759e-003  1.761e-003    -2.755    -2.754     0.000
   H3SiO4-               5.725e-007  5.330e-007    -6.242    -6.273    -0.031
   H2SiO4-2              9.907e-014  7.442e-014   -13.004   -13.128    -0.124

------------------------------Saturation indices-------------------------------

	Phase               SI log IAP  log KT

	Al(OH)3(a)        3.13   13.93   10.80  Al(OH)3
	Albite           -4.71  -22.71  -18.00  NaAlSi3O8
	Chalcedony        0.80   -2.75   -3.55  SiO2
	Gibbsite          5.82   13.93    8.11  Al(OH)3
	H2(g)           -20.58   22.42   43.00  H2
	H2O(g)           -1.51   -0.00    1.51  H2O
	Kaolinite        14.93   22.36    7.43  Al2Si2O5(OH)4
	O2(g)           -41.94  -44.83   -2.89  O2
	Quartz            1.20   -2.75   -3.96  SiO2
	SiO2(a)          -0.04   -2.75   -2.71  SiO2

------------------
End of simulation.
------------------

------------------------------------
Reading input data for simulation 3.
------------------------------------

	MIX 2 
		1001	0.500000	
	 SAVE SOLUTION	2	 
	 END
-----------------------------------------
Beginning of batch-reaction calculations.
-----------------------------------------

Reaction step 1.

Using mix 2.	

Mixture 2.	

	 5.000e-001 Solution 1001	initial solution                                       

-----------------------------Solution composition------------------------------

	Elements           Molality       Moles

	Al               8.870e-003  4.435e-003
	Na               1.000e-012  5.000e-013
	Si               1.760e-003  8.800e-004

----------------------------Description of solution----------------------------

                                       pH  =   6.312      Charge balance
                                       pe  =   4.000      Adjusted to redox equilibrium
                        Activity of water  =   1.000
                           Ionic strength  =  4.419e-003
                       Mass of water (kg)  =  5.000e-001
                 Total alkalinity (eq/kg)  =  2.661e-002
                    Total carbon (mol/kg)  =  0.000e+000
                       Total CO2 (mol/kg)  =  0.000e+000
                      Temperature (deg C)  =  25.000
                  Electrical balance (eq)  =  4.822e-014
 Percent error, 100*(Cat-|An|)/(Cat+|An|)  =   0.00
                               Iterations  =   0
                                  Total H  = 5.552304e+001
                                  Total O  = 2.776993e+001

----------------------------Distribution of species----------------------------

                                                   Log       Log         Log 
   Species                 Molality    Activity  Molality  Activity     Gamma

   H+                    5.200e-007  4.872e-007    -6.284    -6.312    -0.028
   OH-                   2.209e-008  2.054e-008    -7.656    -7.687    -0.031
   H2O                   5.551e+001  9.998e-001     1.744    -0.000     0.000
Al              8.870e-003
   Al(OH)4-              4.095e-003  3.813e-003    -2.388    -2.419    -0.031
   Al(OH)2+              3.502e-003  3.260e-003    -2.456    -2.487    -0.031
   Al(OH)3               9.848e-004  9.858e-004    -3.007    -3.006     0.000
   AlOH+2                2.699e-004  2.027e-004    -3.569    -3.693    -0.124
   Al+3                  1.788e-005  9.945e-006    -4.748    -5.002    -0.255
H(0)            3.358e-024
   H2                    1.679e-024  1.681e-024   -23.775   -23.775     0.000
Na              1.000e-012
   Na+                   1.000e-012  9.315e-013   -12.000   -12.031    -0.031
   NaOH                  1.262e-020  1.263e-020   -19.899   -19.899     0.000
O(0)            0.000e+000
   O2                    0.000e+000  0.000e+000   -44.832   -44.831     0.000
Si              1.760e-003
   H4SiO4                1.759e-003  1.761e-003    -2.755    -2.754     0.000
   H3SiO4-               5.725e-007  5.330e-007    -6.242    -6.273    -0.031
   H2SiO4-2              9.907e-014  7.442e-014   -13.004   -13.128    -0.124

------------------------------Saturation indices-------------------------------

	Phase               SI log IAP  log KT

	Al(OH)3(a)        3.13   13.93   10.80  Al(OH)3
	Albite           -4.71  -22.71  -18.00  NaAlSi3O8
	Chalcedony        0.80   -2.75   -3.55  SiO2
	Gibbsite          5.82   13.93    8.11  Al(OH)3
	H2(g)           -20.58   22.42   43.00  H2
	H2O(g)           -1.51   -0.00    1.51  H2O
	Kaolinite        14.93   22.36    7.43  Al2Si2O5(OH)4
	O2(g)           -41.94  -44.83   -2.89  O2
	Quartz            1.20   -2.75   -3.96  SiO2
	SiO2(a)          -0.04   -2.75   -2.71  SiO2

------------------
End of simulation.
------------------

------------------------------------
Reading input data for simulation 4.
------------------------------------

	MIX 3 
		1001	0.500000	
	 SAVE SOLUTION	3	 
	 END
-----------------------------------------
Beginning of batch-reaction calculations.
-----------------------------------------

Reaction step 1.

Using mix 3.	

Mixture 3.	

	 5.000e-001 Solution 1001	initial solution                                       

-----------------------------Solution composition------------------------------

	Elements           Molality       Moles

	Al               8.870e-003  4.435e-003
	Na               1.000e-012  5.000e-013
	Si               1.760e-003  8.800e-004

----------------------------Description of solution----------------------------

                                       pH  =   6.312      Charge balance
                                       pe  =   4.000      Adjusted to redox equilibrium
                        Activity of water  =   1.000
                           Ionic strength  =  4.419e-003
                       Mass of water (kg)  =  5.000e-001
                 Total alkalinity (eq/kg)  =  2.661e-002
                    Total carbon (mol/kg)  =  0.000e+000
                       Total CO2 (mol/kg)  =  0.000e+000
                      Temperature (deg C)  =  25.000
                  Electrical balance (eq)  =  4.822e-014
 Percent error, 100*(Cat-|An|)/(Cat+|An|)  =   0.00
                               Iterations  =   0
                                  Total H  = 5.552304e+001
                                  Total O  = 2.776993e+001

----------------------------Distribution of species----------------------------

                                                   Log       Log         Log 
   Species                 Molality    Activity  Molality  Activity     Gamma

   H+                    5.200e-007  4.872e-007    -6.284    -6.312    -0.028
   OH-                   2.209e-008  2.054e-008    -7.656    -7.687    -0.031
   H2O                   5.551e+001  9.998e-001     1.744    -0.000     0.000
Al              8.870e-003
   Al(OH)4-              4.095e-003  3.813e-003    -2.388    -2.419    -0.031
   Al(OH)2+              3.502e-003  3.260e-003    -2.456    -2.487    -0.031
   Al(OH)3               9.848e-004  9.858e-004    -3.007    -3.006     0.000
   AlOH+2                2.699e-004  2.027e-004    -3.569    -3.693    -0.124
   Al+3                  1.788e-005  9.945e-006    -4.748    -5.002    -0.255
H(0)            3.358e-024
   H2                    1.679e-024  1.681e-024   -23.775   -23.775     0.000
Na              1.000e-012
   Na+                   1.000e-012  9.315e-013   -12.000   -12.031    -0.031
   NaOH                  1.262e-020  1.263e-020   -19.899   -19.899     0.000
O(0)            0.000e+000
   O2                    0.000e+000  0.000e+000   -44.832   -44.831     0.000
Si              1.760e-003
   H4SiO4                1.759e-003  1.761e-003    -2.755    -2.754     0.000
   H3SiO4-               5.725e-007  5.330e-007    -6.242    -6.273    -0.031
   H2SiO4-2              9.907e-014  7.442e-014   -13.004   -13.128    -0.124

------------------------------Saturation indices-------------------------------

	Phase               SI log IAP  log KT

	Al(OH)3(a)        3.13   13.93   10.80  Al(OH)3
	Albite           -4.71  -22.71  -18.00  NaAlSi3O8
	Chalcedony        0.80   -2.75   -3.55  SiO2
	Gibbsite          5.82   13.93    8.11  Al(OH)3
	H2(g)           -20.58   22.42   43.00  H2
	H2O(g)           -1.51   -0.00    1.51  H2O
	Kaolinite        14.93   22.36    7.43  Al2Si2O5(OH)4
	O2(g)           -41.94  -44.83   -2.89  O2
	Quartz            1.20   -2.75   -3.96  SiO2
	SiO2(a)          -0.04   -2.75   -2.71  SiO2

------------------
End of simulation.
------------------

------------------------------------
Reading input data for simulation 5.
------------------------------------

	MIX 4 
		1001	0.500000	
	 SAVE SOLUTION	4	 
	 END
-----------------------------------------
Beginning of batch-reaction calculations.
-----------------------------------------

Reaction step 1.

Using mix 4.	

Mixture 4.	

	 5.000e-001 Solution 1001	initial solution                                       

-----------------------------Solution composition------------------------------

	Elements           Molality       Moles

	Al               8.870e-003  4.435e-003
	Na               1.000e-012  5.000e-013
	Si               1.760e-003  8.800e-004

----------------------------Description of solution----------------------------

                                       pH  =   6.312      Charge balance
                                       pe  =   4.000      Adjusted to redox equilibrium
                        Activity of water  =   1.000
                           Ionic strength  =  4.419e-003
                       Mass of water (kg)  =  5.000e-001
                 Total alkalinity (eq/kg)  =  2.661e-002
                    Total carbon (mol/kg)  =  0.000e+000
                       Total CO2 (mol/kg)  =  0.000e+000
                      Temperature (deg C)  =  25.000
                  Electrical balance (eq)  =  4.822e-014
 Percent error, 100*(Cat-|An|)/(Cat+|An|)  =   0.00
                               Iterations  =   0
                                  Total H  = 5.552304e+001
                                  Total O  = 2.776993e+001

----------------------------Distribution of species----------------------------

                                                   Log       Log         Log 
   Species                 Molality    Activity  Molality  Activity     Gamma

   H+                    5.200e-007  4.872e-007    -6.284    -6.312    -0.028
   OH-                   2.209e-008  2.054e-008    -7.656    -7.687    -0.031
   H2O                   5.551e+001  9.998e-001     1.744    -0.000     0.000
Al              8.870e-003
   Al(OH)4-              4.095e-003  3.813e-003    -2.388    -2.419    -0.031
   Al(OH)2+              3.502e-003  3.260e-003    -2.456    -2.487    -0.031
   Al(OH)3               9.848e-004  9.858e-004    -3.007    -3.006     0.000
   AlOH+2                2.699e-004  2.027e-004    -3.569    -3.693    -0.124
   Al+3                  1.788e-005  9.945e-006    -4.748    -5.002    -0.255
H(0)            3.358e-024
   H2                    1.679e-024  1.681e-024   -23.775   -23.775     0.000
Na              1.000e-012
   Na+                   1.000e-012  9.315e-013   -12.000   -12.031    -0.031
   NaOH                  1.262e-020  1.263e-020   -19.899   -19.899     0.000
O(0)            0.000e+000
   O2                    0.000e+000  0.000e+000   -44.832   -44.831     0.000
Si              1.760e-003
   H4SiO4                1.759e-003  1.761e-003    -2.755    -2.754     0.000
   H3SiO4-               5.725e-007  5.330e-007    -6.242    -6.273    -0.031
   H2SiO4-2              9.907e-014  7.442e-014   -13.004   -13.128    -0.124

------------------------------Saturation indices-------------------------------

	Phase               SI log IAP  log KT

	Al(OH)3(a)        3.13   13.93   10.80  Al(OH)3
	Albite           -4.71  -22.71  -18.00  NaAlSi3O8
	Chalcedony        0.80   -2.75   -3.55  SiO2
	Gibbsite          5.82   13.93    8.11  Al(OH)3
	H2(g)           -20.58   22.42   43.00  H2
	H2O(g)           -1.51   -0.00    1.51  H2O
	Kaolinite        14.93   22.36    7.43  Al2Si2O5(OH)4
	O2(g)           -41.94  -44.83   -2.89  O2
	Quartz            1.20   -2.75   -3.96  SiO2
	SiO2(a)          -0.04   -2.75   -2.71  SiO2

------------------
End of simulation.
------------------

------------------------------------
Reading input data for simulation 6.
------------------------------------

	MIX 5 
		1001	0.500000	
	 SAVE SOLUTION	5	 
	 END
-----------------------------------------
Beginning of batch-reaction calculations.
-----------------------------------------

Reaction step 1.

Using mix 5.	

Mixture 5.	

	 5.000e-001 Solution 1001	initial solution                                       

-----------------------------Solution composition------------------------------

	Elements           Molality       Moles

	Al               8.870e-003  4.435e-003
	Na               1.000e-012  5.000e-013
	Si               1.760e-003  8.800e-004

----------------------------Description of solution----------------------------

                                       pH  =   6.312      Charge balance
                                       pe  =   4.000      Adjusted to redox equilibrium
                        Activity of water  =   1.000
                           Ionic strength  =  4.419e-003
                       Mass of water (kg)  =  5.000e-001
                 Total alkalinity (eq/kg)  =  2.661e-002
                    Total carbon (mol/kg)  =  0.000e+000
                       Total CO2 (mol/kg)  =  0.000e+000
                      Temperature (deg C)  =  25.000
                  Electrical balance (eq)  =  4.822e-014
 Percent error, 100*(Cat-|An|)/(Cat+|An|)  =   0.00
                               Iterations  =   0
                                  Total H  = 5.552304e+001
                                  Total O  = 2.776993e+001

----------------------------Distribution of species----------------------------

                                                   Log       Log         Log 
   Species                 Molality    Activity  Molality  Activity     Gamma

   H+                    5.200e-007  4.872e-007    -6.284    -6.312    -0.028
   OH-                   2.209e-008  2.054e-008    -7.656    -7.687    -0.031
   H2O                   5.551e+001  9.998e-001     1.744    -0.000     0.000
Al              8.870e-003
   Al(OH)4-              4.095e-003  3.813e-003    -2.388    -2.419    -0.031
   Al(OH)2+              3.502e-003  3.260e-003    -2.456    -2.487    -0.031
   Al(OH)3               9.848e-004  9.858e-004    -3.007    -3.006     0.000
   AlOH+2                2.699e-004  2.027e-004    -3.569    -3.693    -0.124
   Al+3                  1.788e-005  9.945e-006    -4.748    -5.002    -0.255
H(0)            3.358e-024
   H2                    1.679e-024  1.681e-024   -23.775   -23.775     0.000
Na              1.000e-012
   Na+                   1.000e-012  9.315e-013   -12.000   -12.031    -0.031
   NaOH                  1.262e-020  1.263e-020   -19.899   -19.899     0.000
O(0)            0.000e+000
   O2                    0.000e+000  0.000e+000   -44.832   -44.831     0.000
Si              1.760e-003
   H4SiO4                1.759e-003  1.761e-003    -2.755    -2.754     0.000
   H3SiO4-               5.725e-007  5.330e-007    -6.242    -6.273    -0.031
   H2SiO4-2              9.907e-014  7.442e-014   -13.004   -13.128    -0.124

------------------------------Saturation indices-------------------------------

	Phase               SI log IAP  log KT

	Al(OH)3(a)        3.13   13.93   10.80  Al(OH)3
	Albite           -4.71  -22.71  -18.00  NaAlSi3O8
	Chalcedony        0.80   -2.75   -3.55  SiO2
	Gibbsite          5.82   13.93    8.11  Al(OH)3
	H2(g)           -20.58   22.42   43.00  H2
	H2O(g)           -1.51   -0.00    1.51  H2O
	Kaolinite        14.93   22.36    7.43  Al2Si2O5(OH)4
	O2(g)           -41.94  -44.83   -2.89  O2
	Quartz            1.20   -2.75   -3.96  SiO2
	SiO2(a)          -0.04   -2.75   -2.71  SiO2

------------------
End of simulation.
------------------

------------------------------------
Reading input data for simulation 7.
------------------------------------

	MIX 6 
		1001	0.500000	
	 SAVE SOLUTION	6	 
	 END
-----------------------------------------
Beginning of batch-reaction calculations.
-----------------------------------------

Reaction step 1.

Using mix 6.	

Mixture 6.	

	 5.000e-001 Solution 1001	initial solution                                       

-----------------------------Solution composition------------------------------

	Elements           Molality       Moles

	Al               8.870e-003  4.435e-003
	Na               1.000e-012  5.000e-013
	Si               1.760e-003  8.800e-004

----------------------------Description of solution----------------------------

                                       pH  =   6.312      Charge balance
                                       pe  =   4.000      Adjusted to redox equilibrium
                        Activity of water  =   1.000
                           Ionic strength  =  4.419e-003
                       Mass of water (kg)  =  5.000e-001
                 Total alkalinity (eq/kg)  =  2.661e-002
                    Total carbon (mol/kg)  =  0.000e+000
                       Total CO2 (mol/kg)  =  0.000e+000
                      Temperature (deg C)  =  25.000
                  Electrical balance (eq)  =  4.822e-014
 Percent error, 100*(Cat-|An|)/(Cat+|An|)  =   0.00
                               Iterations  =   0
                                  Total H  = 5.552304e+001
                                  Total O  = 2.776993e+001

----------------------------Distribution of species----------------------------

                                                   Log       Log         Log 
   Species                 Molality    Activity  Molality  Activity     Gamma

   H+                    5.200e-007  4.872e-007    -6.284    -6.312    -0.028
   OH-                   2.209e-008  2.054e-008    -7.656    -7.687    -0.031
   H2O                   5.551e+001  9.998e-001     1.744    -0.000     0.000
Al              8.870e-003
   Al(OH)4-              4.095e-003  3.813e-003    -2.388    -2.419    -0.031
   Al(OH)2+              3.502e-003  3.260e-003    -2.456    -2.487    -0.031
   Al(OH)3               9.848e-004  9.858e-004    -3.007    -3.006     0.000
   AlOH+2                2.699e-004  2.027e-004    -3.569    -3.693    -0.124
   Al+3                  1.788e-005  9.945e-006    -4.748    -5.002    -0.255
H(0)            3.358e-024
   H2                    1.679e-024  1.681e-024   -23.775   -23.775     0.000
Na              1.000e-012
   Na+                   1.000e-012  9.315e-013   -12.000   -12.031    -0.031
   NaOH                  1.262e-020  1.263e-020   -19.899   -19.899     0.000
O(0)            0.000e+000
   O2                    0.000e+000  0.000e+000   -44.832   -44.831     0.000
Si              1.760e-003
   H4SiO4                1.759e-003  1.761e-003    -2.755    -2.754     0.000
   H3SiO4-               5.725e-007  5.330e-007    -6.242    -6.273    -0.031
   H2SiO4-2              9.907e-014  7.442e-014   -13.004   -13.128    -0.124

------------------------------Saturation indices-------------------------------

	Phase               SI log IAP  log KT

	Al(OH)3(a)        3.13   13.93   10.80  Al(OH)3
	Albite           -4.71  -22.71  -18.00  NaAlSi3O8
	Chalcedony        0.80   -2.75   -3.55  SiO2
	Gibbsite          5.82   13.93    8.11  Al(OH)3
	H2(g)           -20.58   22.42   43.00  H2
	H2O(g)           -1.51   -0.00    1.51  H2O
	Kaolinite        14.93   22.36    7.43  Al2Si2O5(OH)4
	O2(g)           -41.94  -44.83   -2.89  O2
	Quartz            1.20   -2.75   -3.96  SiO2
	SiO2(a)          -0.04   -2.75   -2.71  SiO2

------------------
End of simulation.
------------------

------------------------------------
Reading input data for simulation 8.
------------------------------------

	MIX 7 
		1001	0.500000	
	 SAVE SOLUTION	7	 
	 END
-----------------------------------------
Beginning of batch-reaction calculations.
-----------------------------------------

Reaction step 1.

Using mix 7.	

Mixture 7.	

	 5.000e-001 Solution 1001	initial solution                                       

-----------------------------Solution composition------------------------------

	Elements           Molality       Moles

	Al               8.870e-003  4.435e-003
	Na               1.000e-012  5.000e-013
	Si               1.760e-003  8.800e-004

----------------------------Description of solution----------------------------

                                       pH  =   6.312      Charge balance
                                       pe  =   4.000      Adjusted to redox equilibrium
                        Activity of water  =   1.000
                           Ionic strength  =  4.419e-003
                       Mass of water (kg)  =  5.000e-001
                 Total alkalinity (eq/kg)  =  2.661e-002
                    Total carbon (mol/kg)  =  0.000e+000
                       Total CO2 (mol/kg)  =  0.000e+000
                      Temperature (deg C)  =  25.000
                  Electrical balance (eq)  =  4.822e-014
 Percent error, 100*(Cat-|An|)/(Cat+|An|)  =   0.00
                               Iterations  =   0
                                  Total H  = 5.552304e+001
                                  Total O  = 2.776993e+001

----------------------------Distribution of species----------------------------

                                                   Log       Log         Log 
   Species                 Molality    Activity  Molality  Activity     Gamma

   H+                    5.200e-007  4.872e-007    -6.284    -6.312    -0.028
   OH-                   2.209e-008  2.054e-008    -7.656    -7.687    -0.031
   H2O                   5.551e+001  9.998e-001     1.744    -0.000     0.000
Al              8.870e-003
   Al(OH)4-              4.095e-003  3.813e-003    -2.388    -2.419    -0.031
   Al(OH)2+              3.502e-003  3.260e-003    -2.456    -2.487    -0.031
   Al(OH)3               9.848e-004  9.858e-004    -3.007    -3.006     0.000
   AlOH+2                2.699e-004  2.027e-004    -3.569    -3.693    -0.124
   Al+3                  1.788e-005  9.945e-006    -4.748    -5.002    -0.255
H(0)            3.358e-024
   H2                    1.679e-024  1.681e-024   -23.775   -23.775     0.000
Na              1.000e-012
   Na+                   1.000e-012  9.315e-013   -12.000   -12.031    -0.031
   NaOH                  1.262e-020  1.263e-020   -19.899   -19.899     0.000
O(0)            0.000e+000
   O2                    0.000e+000  0.000e+000   -44.832   -44.831     0.000
Si              1.760e-003
   H4SiO4                1.759e-003  1.761e-003    -2.755    -2.754     0.000
   H3SiO4-               5.725e-007  5.330e-007    -6.242    -6.273    -0.031
   H2SiO4-2              9.907e-014  7.442e-014   -13.004   -13.128    -0.124

------------------------------Saturation indices-------------------------------

	Phase               SI log IAP  log KT

	Al(OH)3(a)        3.13   13.93   10.80  Al(OH)3
	Albite           -4.71  -22.71  -18.00  NaAlSi3O8
	Chalcedony        0.80   -2.75   -3.55  SiO2
	Gibbsite          5.82   13.93    8.11  Al(OH)3
	H2(g)           -20.58   22.42   43.00  H2
	H2O(g)           -1.51   -0.00    1.51  H2O
	Kaolinite        14.93   22.36    7.43  Al2Si2O5(OH)4
	O2(g)           -41.94  -44.83   -2.89  O2
	Quartz            1.20   -2.75   -3.96  SiO2
	SiO2(a)          -0.04   -2.75   -2.71  SiO2

------------------
End of simulation.
------------------

------------------------------------
Reading input data for simulation 9.
------------------------------------

	MIX 8 
		1001	0.500000	
	 SAVE SOLUTION	8	 
	 END
-----------------------------------------
Beginning of batch-reaction calculations.
-----------------------------------------

Reaction step 1.

Using mix 8.	

Mixture 8.	

	 5.000e-001 Solution 1001	initial solution                                       

-----------------------------Solution composition------------------------------

	Elements           Molality       Moles

	Al               8.870e-003  4.435e-003
	Na               1.000e-012  5.000e-013
	Si               1.760e-003  8.800e-004

----------------------------Description of solution----------------------------

                                       pH  =   6.312      Charge balance
                                       pe  =   4.000      Adjusted to redox equilibrium
                        Activity of water  =   1.000
                           Ionic strength  =  4.419e-003
                       Mass of water (kg)  =  5.000e-001
                 Total alkalinity (eq/kg)  =  2.661e-002
                    Total carbon (mol/kg)  =  0.000e+000
                       Total CO2 (mol/kg)  =  0.000e+000
                      Temperature (deg C)  =  25.000
                  Electrical balance (eq)  =  4.822e-014
 Percent error, 100*(Cat-|An|)/(Cat+|An|)  =   0.00
                               Iterations  =   0
                                  Total H  = 5.552304e+001
                                  Total O  = 2.776993e+001

----------------------------Distribution of species----------------------------

                                                   Log       Log         Log 
   Species                 Molality    Activity  Molality  Activity     Gamma

   H+                    5.200e-007  4.872e-007    -6.284    -6.312    -0.028
   OH-                   2.209e-008  2.054e-008    -7.656    -7.687    -0.031
   H2O                   5.551e+001  9.998e-001     1.744    -0.000     0.000
Al              8.870e-003
   Al(OH)4-              4.095e-003  3.813e-003    -2.388    -2.419    -0.031
   Al(OH)2+              3.502e-003  3.260e-003    -2.456    -2.487    -0.031
   Al(OH)3               9.848e-004  9.858e-004    -3.007    -3.006     0.000
   AlOH+2                2.699e-004  2.027e-004    -3.569    -3.693    -0.124
   Al+3                  1.788e-005  9.945e-006    -4.748    -5.002    -0.255
H(0)            3.358e-024
   H2                    1.679e-024  1.681e-024   -23.775   -23.775     0.000
Na              1.000e-012
   Na+                   1.000e-012  9.315e-013   -12.000   -12.031    -0.031
   NaOH                  1.262e-020  1.263e-020   -19.899   -19.899     0.000
O(0)            0.000e+000
   O2                    0.000e+000  0.000e+000   -44.832   -44.831     0.000
Si              1.760e-003
   H4SiO4                1.759e-003  1.761e-003    -2.755    -2.754     0.000
   H3SiO4-               5.725e-007  5.330e-007    -6.242    -6.273    -0.031
   H2SiO4-2              9.907e-014  7.442e-014   -13.004   -13.128    -0.124

------------------------------Saturation indices-------------------------------

	Phase               SI log IAP  log KT

	Al(OH)3(a)        3.13   13.93   10.80  Al(OH)3
	Albite           -4.71  -22.71  -18.00  NaAlSi3O8
	Chalcedony        0.80   -2.75   -3.55  SiO2
	Gibbsite          5.82   13.93    8.11  Al(OH)3
	H2(g)           -20.58   22.42   43.00  H2
	H2O(g)           -1.51   -0.00    1.51  H2O
	Kaolinite        14.93   22.36    7.43  Al2Si2O5(OH)4
	O2(g)           -41.94  -44.83   -2.89  O2
	Quartz            1.20   -2.75   -3.96  SiO2
	SiO2(a)          -0.04   -2.75   -2.71  SiO2

------------------
End of simulation.
------------------

-------------------------------------
Reading input data for simulation 10.
-------------------------------------

	MIX 9 
		1001	0.500000	
	 SAVE SOLUTION	9	 
	 END
-----------------------------------------
Beginning of batch-reaction calculations.
-----------------------------------------

Reaction step 1.

Using mix 9.	

Mixture 9.	

	 5.000e-001 Solution 1001	initial solution                                       

-----------------------------Solution composition------------------------------

	Elements           Molality       Moles

	Al               8.870e-003  4.435e-003
	Na               1.000e-012  5.000e-013
	Si               1.760e-003  8.800e-004

----------------------------Description of solution----------------------------

                                       pH  =   6.312      Charge balance
                                       pe  =   4.000      Adjusted to redox equilibrium
                        Activity of water  =   1.000
                           Ionic strength  =  4.419e-003
                       Mass of water (kg)  =  5.000e-001
                 Total alkalinity (eq/kg)  =  2.661e-002
                    Total carbon (mol/kg)  =  0.000e+000
                       Total CO2 (mol/kg)  =  0.000e+000
                      Temperature (deg C)  =  25.000
                  Electrical balance (eq)  =  4.822e-014
 Percent error, 100*(Cat-|An|)/(Cat+|An|)  =   0.00
                               Iterations  =   0
                                  Total H  = 5.552304e+001
                                  Total O  = 2.776993e+001

----------------------------Distribution of species----------------------------

                                                   Log       Log         Log 
   Species                 Molality    Activity  Molality  Activity     Gamma

   H+                    5.200e-007  4.872e-007    -6.284    -6.312    -0.028
   OH-                   2.209e-008  2.054e-008    -7.656    -7.687    -0.031
   H2O                   5.551e+001  9.998e-001     1.744    -0.000     0.000
Al              8.870e-003
   Al(OH)4-              4.095e-003  3.813e-003    -2.388    -2.419    -0.031
   Al(OH)2+              3.502e-003  3.260e-003    -2.456    -2.487    -0.031
   Al(OH)3               9.848e-004  9.858e-004    -3.007    -3.006     0.000
   AlOH+2                2.699e-004  2.027e-004    -3.569    -3.693    -0.124
   Al+3                  1.788e-005  9.945e-006    -4.748    -5.002    -0.255
H(0)            3.358e-024
   H2                    1.679e-024  1.681e-024   -23.775   -23.775     0.000
Na              1.000e-012
   Na+                   1.000e-012  9.315e-013   -12.000   -12.031    -0.031
   NaOH                  1.262e-020  1.263e-020   -19.899   -19.899     0.000
O(0)            0.000e+000
   O2                    0.000e+000  0.000e+000   -44.832   -44.831     0.000
Si              1.760e-003
   H4SiO4                1.759e-003  1.761e-003    -2.755    -2.754     0.000
   H3SiO4-               5.725e-007  5.330e-007    -6.242    -6.273    -0.031
   H2SiO4-2              9.907e-014  7.442e-014   -13.004   -13.128    -0.124

------------------------------Saturation indices-------------------------------

	Phase               SI log IAP  log KT

	Al(OH)3(a)        3.13   13.93   10.80  Al(OH)3
	Albite           -4.71  -22.71  -18.00  NaAlSi3O8
	Chalcedony        0.80   -2.75   -3.55  SiO2
	Gibbsite          5.82   13.93    8.11  Al(OH)3
	H2(g)           -20.58   22.42   43.00  H2
	H2O(g)           -1.51   -0.00    1.51  H2O
	Kaolinite        14.93   22.36    7.43  Al2Si2O5(OH)4
	O2(g)           -41.94  -44.83   -2.89  O2
	Quartz            1.20   -2.75   -3.96  SiO2
	SiO2(a)          -0.04   -2.75   -2.71  SiO2

------------------
End of simulation.
------------------

-------------------------------------
Reading input data for simulation 11.
-------------------------------------

	MIX 10 
		1001	0.500000	
	 SAVE SOLUTION	10	 
	 END
-----------------------------------------
Beginning of batch-reaction calculations.
-----------------------------------------

Reaction step 1.

Using mix 10.	

Mixture 10.	

	 5.000e-001 Solution 1001	initial solution                                       

-----------------------------Solution composition------------------------------

	Elements           Molality       Moles

	Al               8.870e-003  4.435e-003
	Na               1.000e-012  5.000e-013
	Si               1.760e-003  8.800e-004

----------------------------Description of solution----------------------------

                                       pH  =   6.312      Charge balance
                                       pe  =   4.000      Adjusted to redox equilibrium
                        Activity of water  =   1.000
                           Ionic strength  =  4.419e-003
                       Mass of water (kg)  =  5.000e-001
                 Total alkalinity (eq/kg)  =  2.661e-002
                    Total carbon (mol/kg)  =  0.000e+000
                       Total CO2 (mol/kg)  =  0.000e+000
                      Temperature (deg C)  =  25.000
                  Electrical balance (eq)  =  4.822e-014
 Percent error, 100*(Cat-|An|)/(Cat+|An|)  =   0.00
                               Iterations  =   0
                                  Total H  = 5.552304e+001
                                  Total O  = 2.776993e+001

----------------------------Distribution of species----------------------------

                                                   Log       Log         Log 
   Species                 Molality    Activity  Molality  Activity     Gamma

   H+                    5.200e-007  4.872e-007    -6.284    -6.312    -0.028
   OH-                   2.209e-008  2.054e-008    -7.656    -7.687    -0.031
   H2O                   5.551e+001  9.998e-001     1.744    -0.000     0.000
Al              8.870e-003
   Al(OH)4-              4.095e-003  3.813e-003    -2.388    -2.419    -0.031
   Al(OH)2+              3.502e-003  3.260e-003    -2.456    -2.487    -0.031
   Al(OH)3               9.848e-004  9.858e-004    -3.007    -3.006     0.000
   AlOH+2                2.699e-004  2.027e-004    -3.569    -3.693    -0.124
   Al+3                  1.788e-005  9.945e-006    -4.748    -5.002    -0.255
H(0)            3.358e-024
   H2                    1.679e-024  1.681e-024   -23.775   -23.775     0.000
Na              1.000e-012
   Na+                   1.000e-012  9.315e-013   -12.000   -12.031    -0.031
   NaOH                  1.262e-020  1.263e-020   -19.899   -19.899     0.000
O(0)            0.000e+000
   O2                    0.000e+000  0.000e+000   -44.832   -44.831     0.000
Si              1.760e-003
   H4SiO4                1.759e-003  1.761e-003    -2.755    -2.754     0.000
   H3SiO4-               5.725e-007  5.330e-007    -6.242    -6.273    -0.031
   H2SiO4-2              9.907e-014  7.442e-014   -13.004   -13.128    -0.124

------------------------------Saturation indices-------------------------------

	Phase               SI log IAP  log KT

	Al(OH)3(a)        3.13   13.93   10.80  Al(OH)3
	Albite           -4.71  -22.71  -18.00  NaAlSi3O8
	Chalcedony        0.80   -2.75   -3.55  SiO2
	Gibbsite          5.82   13.93    8.11  Al(OH)3
	H2(g)           -20.58   22.42   43.00  H2
	H2O(g)           -1.51   -0.00    1.51  H2O
	Kaolinite        14.93   22.36    7.43  Al2Si2O5(OH)4
	O2(g)           -41.94  -44.83   -2.89  O2
	Quartz            1.20   -2.75   -3.96  SiO2
	SiO2(a)          -0.04   -2.75   -2.71  SiO2

------------------
End of simulation.
------------------

-------------------------------------
Reading input data for simulation 12.
-------------------------------------

	MIX 11 
		1001	0.500000	
	 SAVE SOLUTION	11	 
	 END
-----------------------------------------
Beginning of batch-reaction calculations.
-----------------------------------------

Reaction step 1.

Using mix 11.	

Mixture 11.	

	 5.000e-001 Solution 1001	initial solution                                       

-----------------------------Solution composition------------------------------

	Elements           Molality       Moles

	Al               8.870e-003  4.435e-003
	Na               1.000e-012  5.000e-013
	Si               1.760e-003  8.800e-004

----------------------------Description of solution----------------------------

                                       pH  =   6.312      Charge balance
                                       pe  =   4.000      Adjusted to redox equilibrium
                        Activity of water  =   1.000
                           Ionic strength  =  4.419e-003
                       Mass of water (kg)  =  5.000e-001
                 Total alkalinity (eq/kg)  =  2.661e-002
                    Total carbon (mol/kg)  =  0.000e+000
                       Total CO2 (mol/kg)  =  0.000e+000
                      Temperature (deg C)  =  25.000
                  Electrical balance (eq)  =  4.822e-014
 Percent error, 100*(Cat-|An|)/(Cat+|An|)  =   0.00
                               Iterations  =   0
                                  Total H  = 5.552304e+001
                                  Total O  = 2.776993e+001

----------------------------Distribution of species----------------------------

                                                   Log       Log         Log 
   Species                 Molality    Activity  Molality  Activity     Gamma

   H+                    5.200e-007  4.872e-007    -6.284    -6.312    -0.028
   OH-                   2.209e-008  2.054e-008    -7.656    -7.687    -0.031
   H2O                   5.551e+001  9.998e-001     1.744    -0.000     0.000
Al              8.870e-003
   Al(OH)4-              4.095e-003  3.813e-003    -2.388    -2.419    -0.031
   Al(OH)2+              3.502e-003  3.260e-003    -2.456    -2.487    -0.031
   Al(OH)3               9.848e-004  9.858e-004    -3.007    -3.006     0.000
   AlOH+2                2.699e-004  2.027e-004    -3.569    -3.693    -0.124
   Al+3                  1.788e-005  9.945e-006    -4.748    -5.002    -0.255
H(0)            3.358e-024
   H2                    1.679e-024  1.681e-024   -23.775   -23.775     0.000
Na              1.000e-012
   Na+                   1.000e-012  9.315e-013   -12.000   -12.031    -0.031
   NaOH                  1.262e-020  1.263e-020   -19.899   -19.899     0.000
O(0)            0.000e+000
   O2                    0.000e+000  0.000e+000   -44.832   -44.831     0.000
Si              1.760e-003
   H4SiO4                1.759e-003  1.761e-003    -2.755    -2.754     0.000
   H3SiO4-               5.725e-007  5.330e-007    -6.242    -6.273    -0.031
   H2SiO4-2              9.907e-014  7.442e-014   -13.004   -13.128    -0.124

------------------------------Saturation indices-------------------------------

	Phase               SI log IAP  log KT

	Al(OH)3(a)        3.13   13.93   10.80  Al(OH)3
	Albite           -4.71  -22.71  -18.00  NaAlSi3O8
	Chalcedony        0.80   -2.75   -3.55  SiO2
	Gibbsite          5.82   13.93    8.11  Al(OH)3
	H2(g)           -20.58   22.42   43.00  H2
	H2O(g)           -1.51   -0.00    1.51  H2O
	Kaolinite        14.93   22.36    7.43  Al2Si2O5(OH)4
	O2(g)           -41.94  -44.83   -2.89  O2
	Quartz            1.20   -2.75   -3.96  SiO2
	SiO2(a)          -0.04   -2.75   -2.71  SiO2

------------------
End of simulation.
------------------

-------------------------------------
Reading input data for simulation 13.
-------------------------------------

	MIX 12 
		1001	0.500000	
	 SAVE SOLUTION	12	 
	 END
-----------------------------------------
Beginning of batch-reaction calculations.
-----------------------------------------

Reaction step 1.

Using mix 12.	

Mixture 12.	

	 5.000e-001 Solution 1001	initial solution                                       

-----------------------------Solution composition------------------------------

	Elements           Molality       Moles

	Al               8.870e-003  4.435e-003
	Na               1.000e-012  5.000e-013
	Si               1.760e-003  8.800e-004

----------------------------Description of solution----------------------------

                                       pH  =   6.312      Charge balance
                                       pe  =   4.000      Adjusted to redox equilibrium
                        Activity of water  =   1.000
                           Ionic strength  =  4.419e-003
                       Mass of water (kg)  =  5.000e-001
                 Total alkalinity (eq/kg)  =  2.661e-002
                    Total carbon (mol/kg)  =  0.000e+000
                       Total CO2 (mol/kg)  =  0.000e+000
                      Temperature (deg C)  =  25.000
                  Electrical balance (eq)  =  4.822e-014
 Percent error, 100*(Cat-|An|)/(Cat+|An|)  =   0.00
                               Iterations  =   0
                                  Total H  = 5.552304e+001
                                  Total O  = 2.776993e+001

----------------------------Distribution of species----------------------------

                                                   Log       Log         Log 
   Species                 Molality    Activity  Molality  Activity     Gamma

   H+                    5.200e-007  4.872e-007    -6.284    -6.312    -0.028
   OH-                   2.209e-008  2.054e-008    -7.656    -7.687    -0.031
   H2O                   5.551e+001  9.998e-001     1.744    -0.000     0.000
Al              8.870e-003
   Al(OH)4-              4.095e-003  3.813e-003    -2.388    -2.419    -0.031
   Al(OH)2+              3.502e-003  3.260e-003    -2.456    -2.487    -0.031
   Al(OH)3               9.848e-004  9.858e-004    -3.007    -3.006     0.000
   AlOH+2                2.699e-004  2.027e-004    -3.569    -3.693    -0.124
   Al+3                  1.788e-005  9.945e-006    -4.748    -5.002    -0.255
H(0)            3.358e-024
   H2                    1.679e-024  1.681e-024   -23.775   -23.775     0.000
Na              1.000e-012
   Na+                   1.000e-012  9.315e-013   -12.000   -12.031    -0.031
   NaOH                  1.262e-020  1.263e-020   -19.899   -19.899     0.000
O(0)            0.000e+000
   O2                    0.000e+000  0.000e+000   -44.832   -44.831     0.000
Si              1.760e-003
   H4SiO4                1.759e-003  1.761e-003    -2.755    -2.754     0.000
   H3SiO4-               5.725e-007  5.330e-007    -6.242    -6.273    -0.031
   H2SiO4-2              9.907e-014  7.442e-014   -13.004   -13.128    -0.124

------------------------------Saturation indices-------------------------------

	Phase               SI log IAP  log KT

	Al(OH)3(a)        3.13   13.93   10.80  Al(OH)3
	Albite           -4.71  -22.71  -18.00  NaAlSi3O8
	Chalcedony        0.80   -2.75   -3.55  SiO2
	Gibbsite          5.82   13.93    8.11  Al(OH)3
	H2(g)           -20.58   22.42   43.00  H2
	H2O(g)           -1.51   -0.00    1.51  H2O
	Kaolinite        14.93   22.36    7.43  Al2Si2O5(OH)4
	O2(g)           -41.94  -44.83   -2.89  O2
	Quartz            1.20   -2.75   -3.96  SiO2
	SiO2(a)          -0.04   -2.75   -2.71  SiO2

------------------
End of simulation.
------------------

-------------------------------------
Reading input data for simulation 14.
-------------------------------------

	MIX 13 
		1001	0.500000	
	 SAVE SOLUTION	13	 
	 END
-----------------------------------------
Beginning of batch-reaction calculations.
-----------------------------------------

Reaction step 1.

Using mix 13.	

Mixture 13.	

	 5.000e-001 Solution 1001	initial solution                                       

-----------------------------Solution composition------------------------------

	Elements           Molality       Moles

	Al               8.870e-003  4.435e-003
	Na               1.000e-012  5.000e-013
	Si               1.760e-003  8.800e-004

----------------------------Description of solution----------------------------

                                       pH  =   6.312      Charge balance
                                       pe  =   4.000      Adjusted to redox equilibrium
                        Activity of water  =   1.000
                           Ionic strength  =  4.419e-003
                       Mass of water (kg)  =  5.000e-001
                 Total alkalinity (eq/kg)  =  2.661e-002
                    Total carbon (mol/kg)  =  0.000e+000
                       Total CO2 (mol/kg)  =  0.000e+000
                      Temperature (deg C)  =  25.000
                  Electrical balance (eq)  =  4.822e-014
 Percent error, 100*(Cat-|An|)/(Cat+|An|)  =   0.00
                               Iterations  =   0
                                  Total H  = 5.552304e+001
                                  Total O  = 2.776993e+001

----------------------------Distribution of species----------------------------

                                                   Log       Log         Log 
   Species                 Molality    Activity  Molality  Activity     Gamma

   H+                    5.200e-007  4.872e-007    -6.284    -6.312    -0.028
   OH-                   2.209e-008  2.054e-008    -7.656    -7.687    -0.031
   H2O                   5.551e+001  9.998e-001     1.744    -0.000     0.000
Al              8.870e-003
   Al(OH)4-              4.095e-003  3.813e-003    -2.388    -2.419    -0.031
   Al(OH)2+              3.502e-003  3.260e-003    -2.456    -2.487    -0.031
   Al(OH)3               9.848e-004  9.858e-004    -3.007    -3.006     0.000
   AlOH+2                2.699e-004  2.027e-004    -3.569    -3.693    -0.124
   Al+3                  1.788e-005  9.945e-006    -4.748    -5.002    -0.255
H(0)            3.358e-024
   H2                    1.679e-024  1.681e-024   -23.775   -23.775     0.000
Na              1.000e-012
   Na+                   1.000e-012  9.315e-013   -12.000   -12.031    -0.031
   NaOH                  1.262e-020  1.263e-020   -19.899   -19.899     0.000
O(0)            0.000e+000
   O2                    0.000e+000  0.000e+000   -44.832   -44.831     0.000
Si              1.760e-003
   H4SiO4                1.759e-003  1.761e-003    -2.755    -2.754     0.000
   H3SiO4-               5.725e-007  5.330e-007    -6.242    -6.273    -0.031
   H2SiO4-2              9.907e-014  7.442e-014   -13.004   -13.128    -0.124

------------------------------Saturation indices-------------------------------

	Phase               SI log IAP  log KT

	Al(OH)3(a)        3.13   13.93   10.80  Al(OH)3
	Albite           -4.71  -22.71  -18.00  NaAlSi3O8
	Chalcedony        0.80   -2.75   -3.55  SiO2
	Gibbsite          5.82   13.93    8.11  Al(OH)3
	H2(g)           -20.58   22.42   43.00  H2
	H2O(g)           -1.51   -0.00    1.51  H2O
	Kaolinite        14.93   22.36    7.43  Al2Si2O5(OH)4
	O2(g)           -41.94  -44.83   -2.89  O2
	Quartz            1.20   -2.75   -3.96  SiO2
	SiO2(a)          -0.04   -2.75   -2.71  SiO2

------------------
End of simulation.
------------------

-------------------------------------
Reading input data for simulation 15.
-------------------------------------

	MIX 14 
		1001	0.500000	
	 SAVE SOLUTION	14	 
	 END
-----------------------------------------
Beginning of batch-reaction calculations.
-----------------------------------------

Reaction step 1.

Using mix 14.	

Mixture 14.	

	 5.000e-001 Solution 1001	initial solution                                       

-----------------------------Solution composition------------------------------

	Elements           Molality       Moles

	Al               8.870e-003  4.435e-003
	Na               1.000e-012  5.000e-013
	Si               1.760e-003  8.800e-004

----------------------------Description of solution----------------------------

                                       pH  =   6.312      Charge balance
                                       pe  =   4.000      Adjusted to redox equilibrium
                        Activity of water  =   1.000
                           Ionic strength  =  4.419e-003
                       Mass of water (kg)  =  5.000e-001
                 Total alkalinity (eq/kg)  =  2.661e-002
                    Total carbon (mol/kg)  =  0.000e+000
                       Total CO2 (mol/kg)  =  0.000e+000
                      Temperature (deg C)  =  25.000
                  Electrical balance (eq)  =  4.822e-014
 Percent error, 100*(Cat-|An|)/(Cat+|An|)  =   0.00
                               Iterations  =   0
                                  Total H  = 5.552304e+001
                                  Total O  = 2.776993e+001

----------------------------Distribution of species----------------------------

                                                   Log       Log         Log 
   Species                 Molality    Activity  Molality  Activity     Gamma

   H+                    5.200e-007  4.872e-007    -6.284    -6.312    -0.028
   OH-                   2.209e-008  2.054e-008    -7.656    -7.687    -0.031
   H2O                   5.551e+001  9.998e-001     1.744    -0.000     0.000
Al              8.870e-003
   Al(OH)4-              4.095e-003  3.813e-003    -2.388    -2.419    -0.031
   Al(OH)2+              3.502e-003  3.260e-003    -2.456    -2.487    -0.031
   Al(OH)3               9.848e-004  9.858e-004    -3.007    -3.006     0.000
   AlOH+2                2.699e-004  2.027e-004    -3.569    -3.693    -0.124
   Al+3                  1.788e-005  9.945e-006    -4.748    -5.002    -0.255
H(0)            3.358e-024
   H2                    1.679e-024  1.681e-024   -23.775   -23.775     0.000
Na              1.000e-012
   Na+                   1.000e-012  9.315e-013   -12.000   -12.031    -0.031
   NaOH                  1.262e-020  1.263e-020   -19.899   -19.899     0.000
O(0)            0.000e+000
   O2                    0.000e+000  0.000e+000   -44.832   -44.831     0.000
Si              1.760e-003
   H4SiO4                1.759e-003  1.761e-003    -2.755    -2.754     0.000
   H3SiO4-               5.725e-007  5.330e-007    -6.242    -6.273    -0.031
   H2SiO4-2              9.907e-014  7.442e-014   -13.004   -13.128    -0.124

------------------------------Saturation indices-------------------------------

	Phase               SI log IAP  log KT

	Al(OH)3(a)        3.13   13.93   10.80  Al(OH)3
	Albite           -4.71  -22.71  -18.00  NaAlSi3O8
	Chalcedony        0.80   -2.75   -3.55  SiO2
	Gibbsite          5.82   13.93    8.11  Al(OH)3
	H2(g)           -20.58   22.42   43.00  H2
	H2O(g)           -1.51   -0.00    1.51  H2O
	Kaolinite        14.93   22.36    7.43  Al2Si2O5(OH)4
	O2(g)           -41.94  -44.83   -2.89  O2
	Quartz            1.20   -2.75   -3.96  SiO2
	SiO2(a)          -0.04   -2.75   -2.71  SiO2

------------------
End of simulation.
------------------

-------------------------------------
Reading input data for simulation 16.
-------------------------------------

	MIX 15 
		1001	0.500000	
	 SAVE SOLUTION	15	 
	 END
-----------------------------------------
Beginning of batch-reaction calculations.
-----------------------------------------

Reaction step 1.

Using mix 15.	

Mixture 15.	

	 5.000e-001 Solution 1001	initial solution                                       

-----------------------------Solution composition------------------------------

	Elements           Molality       Moles

	Al               8.870e-003  4.435e-003
	Na               1.000e-012  5.000e-013
	Si               1.760e-003  8.800e-004

----------------------------Description of solution----------------------------

                                       pH  =   6.312      Charge balance
                                       pe  =   4.000      Adjusted to redox equilibrium
                        Activity of water  =   1.000
                           Ionic strength  =  4.419e-003
                       Mass of water (kg)  =  5.000e-001
                 Total alkalinity (eq/kg)  =  2.661e-002
                    Total carbon (mol/kg)  =  0.000e+000
                       Total CO2 (mol/kg)  =  0.000e+000
                      Temperature (deg C)  =  25.000
                  Electrical balance (eq)  =  4.822e-014
 Percent error, 100*(Cat-|An|)/(Cat+|An|)  =   0.00
                               Iterations  =   0
                                  Total H  = 5.552304e+001
                                  Total O  = 2.776993e+001

----------------------------Distribution of species----------------------------

                                                   Log       Log         Log 
   Species                 Molality    Activity  Molality  Activity     Gamma

   H+                    5.200e-007  4.872e-007    -6.284    -6.312    -0.028
   OH-                   2.209e-008  2.054e-008    -7.656    -7.687    -0.031
   H2O                   5.551e+001  9.998e-001     1.744    -0.000     0.000
Al              8.870e-003
   Al(OH)4-              4.095e-003  3.813e-003    -2.388    -2.419    -0.031
   Al(OH)2+              3.502e-003  3.260e-003    -2.456    -2.487    -0.031
   Al(OH)3               9.848e-004  9.858e-004    -3.007    -3.006     0.000
   AlOH+2                2.699e-004  2.027e-004    -3.569    -3.693    -0.124
   Al+3                  1.788e-005  9.945e-006    -4.748    -5.002    -0.255
H(0)            3.358e-024
   H2                    1.679e-024  1.681e-024   -23.775   -23.775     0.000
Na              1.000e-012
   Na+                   1.000e-012  9.315e-013   -12.000   -12.031    -0.031
   NaOH                  1.262e-020  1.263e-020   -19.899   -19.899     0.000
O(0)            0.000e+000
   O2                    0.000e+000  0.000e+000   -44.832   -44.831     0.000
Si              1.760e-003
   H4SiO4                1.759e-003  1.761e-003    -2.755    -2.754     0.000
   H3SiO4-               5.725e-007  5.330e-007    -6.242    -6.273    -0.031
   H2SiO4-2              9.907e-014  7.442e-014   -13.004   -13.128    -0.124

------------------------------Saturation indices-------------------------------

	Phase               SI log IAP  log KT

	Al(OH)3(a)        3.13   13.93   10.80  Al(OH)3
	Albite           -4.71  -22.71  -18.00  NaAlSi3O8
	Chalcedony        0.80   -2.75   -3.55  SiO2
	Gibbsite          5.82   13.93    8.11  Al(OH)3
	H2(g)           -20.58   22.42   43.00  H2
	H2O(g)           -1.51   -0.00    1.51  H2O
	Kaolinite        14.93   22.36    7.43  Al2Si2O5(OH)4
	O2(g)           -41.94  -44.83   -2.89  O2
	Quartz            1.20   -2.75   -3.96  SiO2
	SiO2(a)          -0.04   -2.75   -2.71  SiO2

------------------
End of simulation.
------------------

-------------------------------------
Reading input data for simulation 17.
-------------------------------------

	MIX 16 
		1001	0.500000	
	 SAVE SOLUTION	16	 
	 END
-----------------------------------------
Beginning of batch-reaction calculations.
-----------------------------------------

Reaction step 1.

Using mix 16.	

Mixture 16.	

	 5.000e-001 Solution 1001	initial solution                                       

-----------------------------Solution composition------------------------------

	Elements           Molality       Moles

	Al               8.870e-003  4.435e-003
	Na               1.000e-012  5.000e-013
	Si               1.760e-003  8.800e-004

----------------------------Description of solution----------------------------

                                       pH  =   6.312      Charge balance
                                       pe  =   4.000      Adjusted to redox equilibrium
                        Activity of water  =   1.000
                           Ionic strength  =  4.419e-003
                       Mass of water (kg)  =  5.000e-001
                 Total alkalinity (eq/kg)  =  2.661e-002
                    Total carbon (mol/kg)  =  0.000e+000
                       Total CO2 (mol/kg)  =  0.000e+000
                      Temperature (deg C)  =  25.000
                  Electrical balance (eq)  =  4.822e-014
 Percent error, 100*(Cat-|An|)/(Cat+|An|)  =   0.00
                               Iterations  =   0
                                  Total H  = 5.552304e+001
                                  Total O  = 2.776993e+001

----------------------------Distribution of species----------------------------

                                                   Log       Log         Log 
   Species                 Molality    Activity  Molality  Activity     Gamma

   H+                    5.200e-007  4.872e-007    -6.284    -6.312    -0.028
   OH-                   2.209e-008  2.054e-008    -7.656    -7.687    -0.031
   H2O                   5.551e+001  9.998e-001     1.744    -0.000     0.000
Al              8.870e-003
   Al(OH)4-              4.095e-003  3.813e-003    -2.388    -2.419    -0.031
   Al(OH)2+              3.502e-003  3.260e-003    -2.456    -2.487    -0.031
   Al(OH)3               9.848e-004  9.858e-004    -3.007    -3.006     0.000
   AlOH+2                2.699e-004  2.027e-004    -3.569    -3.693    -0.124
   Al+3                  1.788e-005  9.945e-006    -4.748    -5.002    -0.255
H(0)            3.358e-024
   H2                    1.679e-024  1.681e-024   -23.775   -23.775     0.000
Na              1.000e-012
   Na+                   1.000e-012  9.315e-013   -12.000   -12.031    -0.031
   NaOH                  1.262e-020  1.263e-020   -19.899   -19.899     0.000
O(0)            0.000e+000
   O2                    0.000e+000  0.000e+000   -44.832   -44.831     0.000
Si              1.760e-003
   H4SiO4                1.759e-003  1.761e-003    -2.755    -2.754     0.000
   H3SiO4-               5.725e-007  5.330e-007    -6.242    -6.273    -0.031
   H2SiO4-2              9.907e-014  7.442e-014   -13.004   -13.128    -0.124

------------------------------Saturation indices-------------------------------

	Phase               SI log IAP  log KT

	Al(OH)3(a)        3.13   13.93   10.80  Al(OH)3
	Albite           -4.71  -22.71  -18.00  NaAlSi3O8
	Chalcedony        0.80   -2.75   -3.55  SiO2
	Gibbsite          5.82   13.93    8.11  Al(OH)3
	H2(g)           -20.58   22.42   43.00  H2
	H2O(g)           -1.51   -0.00    1.51  H2O
	Kaolinite        14.93   22.36    7.43  Al2Si2O5(OH)4
	O2(g)           -41.94  -44.83   -2.89  O2
	Quartz            1.20   -2.75   -3.96  SiO2
	SiO2(a)          -0.04   -2.75   -2.71  SiO2

------------------
End of simulation.
------------------

-------------------------------------
Reading input data for simulation 18.
-------------------------------------

	MIX 17 
		1001	0.500000	
	 SAVE SOLUTION	17	 
	 END
-----------------------------------------
Beginning of batch-reaction calculations.
-----------------------------------------

Reaction step 1.

Using mix 17.	

Mixture 17.	

	 5.000e-001 Solution 1001	initial solution                                       

-----------------------------Solution composition------------------------------

	Elements           Molality       Moles

	Al               8.870e-003  4.435e-003
	Na               1.000e-012  5.000e-013
	Si               1.760e-003  8.800e-004

----------------------------Description of solution----------------------------

                                       pH  =   6.312      Charge balance
                                       pe  =   4.000      Adjusted to redox equilibrium
                        Activity of water  =   1.000
                           Ionic strength  =  4.419e-003
                       Mass of water (kg)  =  5.000e-001
                 Total alkalinity (eq/kg)  =  2.661e-002
                    Total carbon (mol/kg)  =  0.000e+000
                       Total CO2 (mol/kg)  =  0.000e+000
                      Temperature (deg C)  =  25.000
                  Electrical balance (eq)  =  4.822e-014
 Percent error, 100*(Cat-|An|)/(Cat+|An|)  =   0.00
                               Iterations  =   0
                                  Total H  = 5.552304e+001
                                  Total O  = 2.776993e+001

----------------------------Distribution of species----------------------------

                                                   Log       Log         Log 
   Species                 Molality    Activity  Molality  Activity     Gamma

   H+                    5.200e-007  4.872e-007    -6.284    -6.312    -0.028
   OH-                   2.209e-008  2.054e-008    -7.656    -7.687    -0.031
   H2O                   5.551e+001  9.998e-001     1.744    -0.000     0.000
Al              8.870e-003
   Al(OH)4-              4.095e-003  3.813e-003    -2.388    -2.419    -0.031
   Al(OH)2+              3.502e-003  3.260e-003    -2.456    -2.487    -0.031
   Al(OH)3               9.848e-004  9.858e-004    -3.007    -3.006     0.000
   AlOH+2                2.699e-004  2.027e-004    -3.569    -3.693    -0.124
   Al+3                  1.788e-005  9.945e-006    -4.748    -5.002    -0.255
H(0)            3.358e-024
   H2                    1.679e-024  1.681e-024   -23.775   -23.775     0.000
Na              1.000e-012
   Na+                   1.000e-012  9.315e-013   -12.000   -12.031    -0.031
   NaOH                  1.262e-020  1.263e-020   -19.899   -19.899     0.000
O(0)            0.000e+000
   O2                    0.000e+000  0.000e+000   -44.832   -44.831     0.000
Si              1.760e-003
   H4SiO4                1.759e-003  1.761e-003    -2.755    -2.754     0.000
   H3SiO4-               5.725e-007  5.330e-007    -6.242    -6.273    -0.031
   H2SiO4-2              9.907e-014  7.442e-014   -13.004   -13.128    -0.124

------------------------------Saturation indices-------------------------------

	Phase               SI log IAP  log KT

	Al(OH)3(a)        3.13   13.93   10.80  Al(OH)3
	Albite           -4.71  -22.71  -18.00  NaAlSi3O8
	Chalcedony        0.80   -2.75   -3.55  SiO2
	Gibbsite          5.82   13.93    8.11  Al(OH)3
	H2(g)           -20.58   22.42   43.00  H2
	H2O(g)           -1.51   -0.00    1.51  H2O
	Kaolinite        14.93   22.36    7.43  Al2Si2O5(OH)4
	O2(g)           -41.94  -44.83   -2.89  O2
	Quartz            1.20   -2.75   -3.96  SiO2
	SiO2(a)          -0.04   -2.75   -2.71  SiO2

------------------
End of simulation.
------------------

-------------------------------------
Reading input data for simulation 19.
-------------------------------------

	MIX 18 
		1001	0.500000	
	 SAVE SOLUTION	18	 
	 END
-----------------------------------------
Beginning of batch-reaction calculations.
-----------------------------------------

Reaction step 1.

Using mix 18.	

Mixture 18.	

	 5.000e-001 Solution 1001	initial solution                                       

-----------------------------Solution composition------------------------------

	Elements           Molality       Moles

	Al               8.870e-003  4.435e-003
	Na               1.000e-012  5.000e-013
	Si               1.760e-003  8.800e-004

----------------------------Description of solution----------------------------

                                       pH  =   6.312      Charge balance
                                       pe  =   4.000      Adjusted to redox equilibrium
                        Activity of water  =   1.000
                           Ionic strength  =  4.419e-003
                       Mass of water (kg)  =  5.000e-001
                 Total alkalinity (eq/kg)  =  2.661e-002
                    Total carbon (mol/kg)  =  0.000e+000
                       Total CO2 (mol/kg)  =  0.000e+000
                      Temperature (deg C)  =  25.000
                  Electrical balance (eq)  =  4.822e-014
 Percent error, 100*(Cat-|An|)/(Cat+|An|)  =   0.00
                               Iterations  =   0
                                  Total H  = 5.552304e+001
                                  Total O  = 2.776993e+001

----------------------------Distribution of species----------------------------

                                                   Log       Log         Log 
   Species                 Molality    Activity  Molality  Activity     Gamma

   H+                    5.200e-007  4.872e-007    -6.284    -6.312    -0.028
   OH-                   2.209e-008  2.054e-008    -7.656    -7.687    -0.031
   H2O                   5.551e+001  9.998e-001     1.744    -0.000     0.000
Al              8.870e-003
   Al(OH)4-              4.095e-003  3.813e-003    -2.388    -2.419    -0.031
   Al(OH)2+              3.502e-003  3.260e-003    -2.456    -2.487    -0.031
   Al(OH)3               9.848e-004  9.858e-004    -3.007    -3.006     0.000
   AlOH+2                2.699e-004  2.027e-004    -3.569    -3.693    -0.124
   Al+3                  1.788e-005  9.945e-006    -4.748    -5.002    -0.255
H(0)            3.358e-024
   H2                    1.679e-024  1.681e-024   -23.775   -23.775     0.000
Na              1.000e-012
   Na+                   1.000e-012  9.315e-013   -12.000   -12.031    -0.031
   NaOH                  1.262e-020  1.263e-020   -19.899   -19.899     0.000
O(0)            0.000e+000
   O2                    0.000e+000  0.000e+000   -44.832   -44.831     0.000
Si              1.760e-003
   H4SiO4                1.759e-003  1.761e-003    -2.755    -2.754     0.000
   H3SiO4-               5.725e-007  5.330e-007    -6.242    -6.273    -0.031
   H2SiO4-2              9.907e-014  7.442e-014   -13.004   -13.128    -0.124

------------------------------Saturation indices-------------------------------

	Phase               SI log IAP  log KT

	Al(OH)3(a)        3.13   13.93   10.80  Al(OH)3
	Albite           -4.71  -22.71  -18.00  NaAlSi3O8
	Chalcedony        0.80   -2.75   -3.55  SiO2
	Gibbsite          5.82   13.93    8.11  Al(OH)3
	H2(g)           -20.58   22.42   43.00  H2
	H2O(g)           -1.51   -0.00    1.51  H2O
	Kaolinite        14.93   22.36    7.43  Al2Si2O5(OH)4
	O2(g)           -41.94  -44.83   -2.89  O2
	Quartz            1.20   -2.75   -3.96  SiO2
	SiO2(a)          -0.04   -2.75   -2.71  SiO2

------------------
End of simulation.
------------------

-------------------------------------
Reading input data for simulation 20.
-------------------------------------

	MIX 19 
		1001	0.500000	
	 SAVE SOLUTION	19	 
	 END
-----------------------------------------
Beginning of batch-reaction calculations.
-----------------------------------------

Reaction step 1.

Using mix 19.	

Mixture 19.	

	 5.000e-001 Solution 1001	initial solution                                       

-----------------------------Solution composition------------------------------

	Elements           Molality       Moles

	Al               8.870e-003  4.435e-003
	Na               1.000e-012  5.000e-013
	Si               1.760e-003  8.800e-004

----------------------------Description of solution----------------------------

                                       pH  =   6.312      Charge balance
                                       pe  =   4.000      Adjusted to redox equilibrium
                        Activity of water  =   1.000
                           Ionic strength  =  4.419e-003
                       Mass of water (kg)  =  5.000e-001
                 Total alkalinity (eq/kg)  =  2.661e-002
                    Total carbon (mol/kg)  =  0.000e+000
                       Total CO2 (mol/kg)  =  0.000e+000
                      Temperature (deg C)  =  25.000
                  Electrical balance (eq)  =  4.822e-014
 Percent error, 100*(Cat-|An|)/(Cat+|An|)  =   0.00
                               Iterations  =   0
                                  Total H  = 5.552304e+001
                                  Total O  = 2.776993e+001

----------------------------Distribution of species----------------------------

                                                   Log       Log         Log 
[...]

                                                   Log       Log         Log 
   Species                 Molality    Activity  Molality  Activity     Gamma

   H+                    5.200e-007  4.872e-007    -6.284    -6.312    -0.028
   OH-                   2.209e-008  2.054e-008    -7.656    -7.687    -0.031
   H2O                   5.551e+001  9.998e-001     1.744    -0.000     0.000
Al              8.870e-003
   Al(OH)4-              4.095e-003  3.813e-003    -2.388    -2.419    -0.031
   Al(OH)2+              3.502e-003  3.260e-003    -2.456    -2.487    -0.031
   Al(OH)3               9.848e-004  9.858e-004    -3.007    -3.006     0.000
   AlOH+2                2.699e-004  2.027e-004    -3.569    -3.693    -0.124
   Al+3                  1.788e-005  9.945e-006    -4.748    -5.002    -0.255
H(0)            3.358e-024
   H2                    1.679e-024  1.681e-024   -23.775   -23.775     0.000
Na              1.000e-012
   Na+                   1.000e-012  9.315e-013   -12.000   -12.031    -0.031
   NaOH                  1.262e-020  1.263e-020   -19.899   -19.899     0.000
O(0)            0.000e+000
   O2                    0.000e+000  0.000e+000   -44.832   -44.831     0.000
Si              1.760e-003
   H4SiO4                1.759e-003  1.761e-003    -2.755    -2.754     0.000
   H3SiO4-               5.725e-007  5.330e-007    -6.242    -6.273    -0.031
   H2SiO4-2              9.907e-014  7.442e-014   -13.004   -13.128    -0.124

------------------------------Saturation indices-------------------------------

	Phase               SI log IAP  log KT

	Al(OH)3(a)        3.13   13.93   10.80  Al(OH)3
	Albite           -4.71  -22.71  -18.00  NaAlSi3O8
	Chalcedony        0.80   -2.75   -3.55  SiO2
	Gibbsite          5.82   13.93    8.11  Al(OH)3
	H2(g)           -20.58   22.42   43.00  H2
	H2O(g)           -1.51   -0.00    1.51  H2O
	Kaolinite        14.93   22.36    7.43  Al2Si2O5(OH)4
	O2(g)           -41.94  -44.83   -2.89  O2
	Quartz            1.20   -2.75   -3.96  SiO2
	SiO2(a)          -0.04   -2.75   -2.71  SiO2

------------------
End of simulation.
------------------

-------------------------------------
Reading input data for simulation 99.
-------------------------------------

	MIX 98 
		1001	0.500000	
	 SAVE SOLUTION	98	 
	 END
-----------------------------------------
Beginning of batch-reaction calculations.
-----------------------------------------

Reaction step 1.

Using mix 98.	

Mixture 98.	

	 5.000e-001 Solution 1001	initial solution                                       

-----------------------------Solution composition------------------------------

	Elements           Molality       Moles

	Al               8.870e-003  4.435e-003
	Na               1.000e-012  5.000e-013
	Si               1.760e-003  8.800e-004

----------------------------Description of solution----------------------------

                                       pH  =   6.312      Charge balance
                                       pe  =   4.000      Adjusted to redox equilibrium
                        Activity of water  =   1.000
                           Ionic strength  =  4.419e-003
                       Mass of water (kg)  =  5.000e-001
                 Total alkalinity (eq/kg)  =  2.661e-002
                    Total carbon (mol/kg)  =  0.000e+000
                       Total CO2 (mol/kg)  =  0.000e+000
                      Temperature (deg C)  =  25.000
                  Electrical balance (eq)  =  4.822e-014
 Percent error, 100*(Cat-|An|)/(Cat+|An|)  =   0.00
                               Iterations  =   0
                                  Total H  = 5.552304e+001
                                  Total O  = 2.776993e+001

----------------------------Distribution of species----------------------------

                                                   Log       Log         Log 
   Species                 Molality    Activity  Molality  Activity     Gamma

   H+                    5.200e-007  4.872e-007    -6.284    -6.312    -0.028
   OH-                   2.209e-008  2.054e-008    -7.656    -7.687    -0.031
   H2O                   5.551e+001  9.998e-001     1.744    -0.000     0.000
Al              8.870e-003
   Al(OH)4-              4.095e-003  3.813e-003    -2.388    -2.419    -0.031
   Al(OH)2+              3.502e-003  3.260e-003    -2.456    -2.487    -0.031
   Al(OH)3               9.848e-004  9.858e-004    -3.007    -3.006     0.000
   AlOH+2                2.699e-004  2.027e-004    -3.569    -3.693    -0.124
   Al+3                  1.788e-005  9.945e-006    -4.748    -5.002    -0.255
H(0)            3.358e-024
   H2                    1.679e-024  1.681e-024   -23.775   -23.775     0.000
Na              1.000e-012
   Na+                   1.000e-012  9.315e-013   -12.000   -12.031    -0.031
   NaOH                  1.262e-020  1.263e-020   -19.899   -19.899     0.000
O(0)            0.000e+000
   O2                    0.000e+000  0.000e+000   -44.832   -44.831     0.000
Si              1.760e-003
   H4SiO4                1.759e-003  1.761e-003    -2.755    -2.754     0.000
   H3SiO4-               5.725e-007  5.330e-007    -6.242    -6.273    -0.031
   H2SiO4-2              9.907e-014  7.442e-014   -13.004   -13.128    -0.124

------------------------------Saturation indices-------------------------------

	Phase               SI log IAP  log KT

	Al(OH)3(a)        3.13   13.93   10.80  Al(OH)3
	Albite           -4.71  -22.71  -18.00  NaAlSi3O8
	Chalcedony        0.80   -2.75   -3.55  SiO2
	Gibbsite          5.82   13.93    8.11  Al(OH)3
	H2(g)           -20.58   22.42   43.00  H2
	H2O(g)           -1.51   -0.00    1.51  H2O
	Kaolinite        14.93   22.36    7.43  Al2Si2O5(OH)4
	O2(g)           -41.94  -44.83   -2.89  O2
	Quartz            1.20   -2.75   -3.96  SiO2
	SiO2(a)          -0.04   -2.75   -2.71  SiO2

------------------
End of simulation.
------------------

--------------------------------------
Reading input data for simulation 100.
--------------------------------------

	MIX 99 
		1001	0.500000	
	 SAVE SOLUTION	99	 
	 END
-----------------------------------------
Beginning of batch-reaction calculations.
-----------------------------------------

Reaction step 1.

Using mix 99.	

Mixture 99.	

	 5.000e-001 Solution 1001	initial solution                                       

-----------------------------Solution composition------------------------------

	Elements           Molality       Moles

	Al               8.870e-003  4.435e-003
	Na               1.000e-012  5.000e-013
	Si               1.760e-003  8.800e-004

----------------------------Description of solution----------------------------

                                       pH  =   6.312      Charge balance
                                       pe  =   4.000      Adjusted to redox equilibrium
                        Activity of water  =   1.000
                           Ionic strength  =  4.419e-003
                       Mass of water (kg)  =  5.000e-001
                 Total alkalinity (eq/kg)  =  2.661e-002
                    Total carbon (mol/kg)  =  0.000e+000
                       Total CO2 (mol/kg)  =  0.000e+000
                      Temperature (deg C)  =  25.000
                  Electrical balance (eq)  =  4.822e-014
 Percent error, 100*(Cat-|An|)/(Cat+|An|)  =   0.00
                               Iterations  =   0
                                  Total H  = 5.552304e+001
                                  Total O  = 2.776993e+001

----------------------------Distribution of species----------------------------

                                                   Log       Log         Log 
   Species                 Molality    Activity  Molality  Activity     Gamma

   H+                    5.200e-007  4.872e-007    -6.284    -6.312    -0.028
   OH-                   2.209e-008  2.054e-008    -7.656    -7.687    -0.031
   H2O                   5.551e+001  9.998e-001     1.744    -0.000     0.000
Al              8.870e-003
   Al(OH)4-              4.095e-003  3.813e-003    -2.388    -2.419    -0.031
   Al(OH)2+              3.502e-003  3.260e-003    -2.456    -2.487    -0.031
   Al(OH)3               9.848e-004  9.858e-004    -3.007    -3.006     0.000
   AlOH+2                2.699e-004  2.027e-004    -3.569    -3.693    -0.124
   Al+3                  1.788e-005  9.945e-006    -4.748    -5.002    -0.255
H(0)            3.358e-024
   H2                    1.679e-024  1.681e-024   -23.775   -23.775     0.000
Na              1.000e-012
   Na+                   1.000e-012  9.315e-013   -12.000   -12.031    -0.031
   NaOH                  1.262e-020  1.263e-020   -19.899   -19.899     0.000
O(0)            0.000e+000
   O2                    0.000e+000  0.000e+000   -44.832   -44.831     0.000
Si              1.760e-003
   H4SiO4                1.759e-003  1.761e-003    -2.755    -2.754     0.000
   H3SiO4-               5.725e-007  5.330e-007    -6.242    -6.273    -0.031
   H2SiO4-2              9.907e-014  7.442e-014   -13.004   -13.128    -0.124

------------------------------Saturation indices-------------------------------

	Phase               SI log IAP  log KT

	Al(OH)3(a)        3.13   13.93   10.80  Al(OH)3
	Albite           -4.71  -22.71  -18.00  NaAlSi3O8
	Chalcedony        0.80   -2.75   -3.55  SiO2
	Gibbsite          5.82   13.93    8.11  Al(OH)3
	H2(g)           -20.58   22.42   43.00  H2
	H2O(g)           -1.51   -0.00    1.51  H2O
	Kaolinite        14.93   22.36    7.43  Al2Si2O5(OH)4
	O2(g)           -41.94  -44.83   -2.89  O2
	Quartz            1.20   -2.75   -3.96  SiO2
	SiO2(a)          -0.04   -2.75   -2.71  SiO2

------------------
End of simulation.
------------------

--------------------------------------
Reading input data for simulation 101.
--------------------------------------

	MIX 100 
		1001	0.500000	
	 SAVE SOLUTION	100	 
	 END
-----------------------------------------
Beginning of batch-reaction calculations.
-----------------------------------------

Reaction step 1.

Using mix 100.	

Mixture 100.	

	 5.000e-001 Solution 1001	initial solution                                       

-----------------------------Solution composition------------------------------

	Elements           Molality       Moles

	Al               8.870e-003  4.435e-003
	Na               1.000e-012  5.000e-013
	Si               1.760e-003  8.800e-004

----------------------------Description of solution----------------------------

                                       pH  =   6.312      Charge balance
                                       pe  =   4.000      Adjusted to redox equilibrium
                        Activity of water  =   1.000
                           Ionic strength  =  4.419e-003
                       Mass of water (kg)  =  5.000e-001
                 Total alkalinity (eq/kg)  =  2.661e-002
                    Total carbon (mol/kg)  =  0.000e+000
                       Total CO2 (mol/kg)  =  0.000e+000
                      Temperature (deg C)  =  25.000
                  Electrical balance (eq)  =  4.822e-014
 Percent error, 100*(Cat-|An|)/(Cat+|An|)  =   0.00
                               Iterations  =   0
                                  Total H  = 5.552304e+001
                                  Total O  = 2.776993e+001

----------------------------Distribution of species----------------------------

                                                   Log       Log         Log 
   Species                 Molality    Activity  Molality  Activity     Gamma

   H+                    5.200e-007  4.872e-007    -6.284    -6.312    -0.028
   OH-                   2.209e-008  2.054e-008    -7.656    -7.687    -0.031
   H2O                   5.551e+001  9.998e-001     1.744    -0.000     0.000
Al              8.870e-003
   Al(OH)4-              4.095e-003  3.813e-003    -2.388    -2.419    -0.031
   Al(OH)2+              3.502e-003  3.260e-003    -2.456    -2.487    -0.031
   Al(OH)3               9.848e-004  9.858e-004    -3.007    -3.006     0.000
   AlOH+2                2.699e-004  2.027e-004    -3.569    -3.693    -0.124
   Al+3                  1.788e-005  9.945e-006    -4.748    -5.002    -0.255
H(0)            3.358e-024
   H2                    1.679e-024  1.681e-024   -23.775   -23.775     0.000
Na              1.000e-012
   Na+                   1.000e-012  9.315e-013   -12.000   -12.031    -0.031
   NaOH                  1.262e-020  1.263e-020   -19.899   -19.899     0.000
O(0)            0.000e+000
   O2                    0.000e+000  0.000e+000   -44.832   -44.831     0.000
Si              1.760e-003
   H4SiO4                1.759e-003  1.761e-003    -2.755    -2.754     0.000
   H3SiO4-               5.725e-007  5.330e-007    -6.242    -6.273    -0.031
   H2SiO4-2              9.907e-014  7.442e-014   -13.004   -13.128    -0.124

------------------------------Saturation indices-------------------------------

	Phase               SI log IAP  log KT

	Al(OH)3(a)        3.13   13.93   10.80  Al(OH)3
	Albite           -4.71  -22.71  -18.00  NaAlSi3O8
	Chalcedony        0.80   -2.75   -3.55  SiO2
	Gibbsite          5.82   13.93    8.11  Al(OH)3
	H2(g)           -20.58   22.42   43.00  H2
	H2O(g)           -1.51   -0.00    1.51  H2O
	Kaolinite        14.93   22.36    7.43  Al2Si2O5(OH)4
	O2(g)           -41.94  -44.83   -2.89  O2
	Quartz            1.20   -2.75   -3.96  SiO2
	SiO2(a)          -0.04   -2.75   -2.71  SiO2

------------------
End of simulation.
------------------

--------------------------------------
Reading input data for simulation 102.
--------------------------------------

	MIX 101 
		1001	0.500000	
	 SAVE SOLUTION	101	 
	 END
-----------------------------------------
Beginning of batch-reaction calculations.
-----------------------------------------

Reaction step 1.

Using mix 101.	

Mixture 101.	

	 5.000e-001 Solution 1001	initial solution                                       

-----------------------------Solution composition------------------------------

	Elements           Molality       Moles

	Al               8.870e-003  4.435e-003
	Na               1.000e-012  5.000e-013
	Si               1.760e-003  8.800e-004

----------------------------Description of solution----------------------------

                                       pH  =   6.312      Charge balance
                                       pe  =   4.000      Adjusted to redox equilibrium
                        Activity of water  =   1.000
                           Ionic strength  =  4.419e-003
                       Mass of water (kg)  =  5.000e-001
                 Total alkalinity (eq/kg)  =  2.661e-002
                    Total carbon (mol/kg)  =  0.000e+000
                       Total CO2 (mol/kg)  =  0.000e+000
                      Temperature (deg C)  =  25.000
                  Electrical balance (eq)  =  4.822e-014
 Percent error, 100*(Cat-|An|)/(Cat+|An|)  =   0.00
                               Iterations  =   0
                                  Total H  = 5.552304e+001
                                  Total O  = 2.776993e+001

----------------------------Distribution of species----------------------------

                                                   Log       Log         Log 
   Species                 Molality    Activity  Molality  Activity     Gamma

   H+                    5.200e-007  4.872e-007    -6.284    -6.312    -0.028
   OH-                   2.209e-008  2.054e-008    -7.656    -7.687    -0.031
   H2O                   5.551e+001  9.998e-001     1.744    -0.000     0.000
Al              8.870e-003
   Al(OH)4-              4.095e-003  3.813e-003    -2.388    -2.419    -0.031
   Al(OH)2+              3.502e-003  3.260e-003    -2.456    -2.487    -0.031
   Al(OH)3               9.848e-004  9.858e-004    -3.007    -3.006     0.000
   AlOH+2                2.699e-004  2.027e-004    -3.569    -3.693    -0.124
   Al+3                  1.788e-005  9.945e-006    -4.748    -5.002    -0.255
H(0)            3.358e-024
   H2                    1.679e-024  1.681e-024   -23.775   -23.775     0.000
Na              1.000e-012
   Na+                   1.000e-012  9.315e-013   -12.000   -12.031    -0.031
   NaOH                  1.262e-020  1.263e-020   -19.899   -19.899     0.000
O(0)            0.000e+000
   O2                    0.000e+000  0.000e+000   -44.832   -44.831     0.000
Si              1.760e-003
   H4SiO4                1.759e-003  1.761e-003    -2.755    -2.754     0.000
   H3SiO4-               5.725e-007  5.330e-007    -6.242    -6.273    -0.031
   H2SiO4-2              9.907e-014  7.442e-014   -13.004   -13.128    -0.124

------------------------------Saturation indices-------------------------------

	Phase               SI log IAP  log KT

	Al(OH)3(a)        3.13   13.93   10.80  Al(OH)3
	Albite           -4.71  -22.71  -18.00  NaAlSi3O8
	Chalcedony        0.80   -2.75   -3.55  SiO2
	Gibbsite          5.82   13.93    8.11  Al(OH)3
	H2(g)           -20.58   22.42   43.00  H2
	H2O(g)           -1.51   -0.00    1.51  H2O
	Kaolinite        14.93   22.36    7.43  Al2Si2O5(OH)4
	O2(g)           -41.94  -44.83   -2.89  O2
	Quartz            1.20   -2.75   -3.96  SiO2
	SiO2(a)          -0.04   -2.75   -2.71  SiO2

------------------
End of simulation.
------------------

--------------------------------------
Reading input data for simulation 103.
--------------------------------------

	EQUILIBRIUM_PHASES 1-101 @Layer 1@
	SiO2(a) 0 0.015
	gibbsite 0 0.005
	PRINT
	 reset false
	 warnings 500
	TRANSPORT
	 cells 101
	 gnuplot true


--------------------------------
Printing G N U P L O T templates
--------------------------------

  Printing G N U P L O T template file: C:\ussl\HYDRUS-1D v4\Examples\HP1\MINDIS\ts_pH.plt
  Printing G N U P L O T template file: C:\ussl\HYDRUS-1D v4\Examples\HP1\MINDIS\pd_pH.plt
  Printing G N U P L O T template file: C:\ussl\HYDRUS-1D v4\Examples\HP1\MINDIS\ts_pe.plt
  Printing G N U P L O T template file: C:\ussl\HYDRUS-1D v4\Examples\HP1\MINDIS\pd_pe.plt
  Printing G N U P L O T template file: C:\ussl\HYDRUS-1D v4\Examples\HP1\MINDIS\ts_tot_Si.plt
  Printing G N U P L O T template file: C:\ussl\HYDRUS-1D v4\Examples\HP1\MINDIS\pd_tot_Si.plt
  Printing G N U P L O T template file: C:\ussl\HYDRUS-1D v4\Examples\HP1\MINDIS\ts_tot_Na.plt
  Printing G N U P L O T template file: C:\ussl\HYDRUS-1D v4\Examples\HP1\MINDIS\pd_tot_Na.plt
  Printing G N U P L O T template file: C:\ussl\HYDRUS-1D v4\Examples\HP1\MINDIS\ts_tot_Al.plt
  Printing G N U P L O T template file: C:\ussl\HYDRUS-1D v4\Examples\HP1\MINDIS\pd_tot_Al.plt
  Printing G N U P L O T template file: C:\ussl\HYDRUS-1D v4\Examples\HP1\MINDIS\ts_eq_gibbsite.plt
  Printing G N U P L O T template file: C:\ussl\HYDRUS-1D v4\Examples\HP1\MINDIS\pd_eq_gibbsite.plt
  Printing G N U P L O T template file: C:\ussl\HYDRUS-1D v4\Examples\HP1\MINDIS\ts_d_eq_gibbsite.plt
  Printing G N U P L O T template file: C:\ussl\HYDRUS-1D v4\Examples\HP1\MINDIS\pd_d_eq_gibbsite.plt
  Printing G N U P L O T template file: C:\ussl\HYDRUS-1D v4\Examples\HP1\MINDIS\ts_eq_SiO2(a).plt
  Printing G N U P L O T template file: C:\ussl\HYDRUS-1D v4\Examples\HP1\MINDIS\pd_eq_SiO2(a).plt
  Printing G N U P L O T template file: C:\ussl\HYDRUS-1D v4\Examples\HP1\MINDIS\ts_d_eq_SiO2(a).plt
  Printing G N U P L O T template file: C:\ussl\HYDRUS-1D v4\Examples\HP1\MINDIS\pd_d_eq_SiO2(a).plt


--------------------------------
STARTING TRANSPORT CALCULATIONS
--------------------------------

