-----------------------------
VERSION AND FILE INFORMATION.
-----------------------------

HP1-2.1.002 based on PHREEQC-2.15.0-2697 and HYDRUS1D-4.0 (released on November 02, 2009).

PROJECT FOLDER: C:\ussl\HYDRUS-1D v4\Examples\HP1\TRANSCL
    INPUT FILE: C:\ussl\HYDRUS-1D v4\Examples\HP1\TRANSCL\phreeqc.in
   OUTPUT FILE: C:\ussl\HYDRUS-1D v4\Examples\HP1\TRANSCL\phreeqc.out
 DATABASE FILE: C:\Program Files\PC-Progress\HYDRUS-1D 4.xx\HP1 Databases\PHREEQC.DAT

------------------
Reading data base.
------------------

	SOLUTION_MASTER_SPECIES
	SOLUTION_SPECIES
	PHASES
	EXCHANGE_MASTER_SPECIES
	EXCHANGE_SPECIES
	SURFACE_MASTER_SPECIES
	SURFACE_SPECIES
	RATES
	END
------------------------------------
Reading input data for simulation 1.
------------------------------------

	TITLE : Transient nonequilibrium physical transport
	SOLUTION_MASTER_SPECIES
	SOLUTION_SPECIES
	PHASES
	EXCHANGE_MASTER_SPECIES
	EXCHANGE_SPECIES
	SURFACE_MASTER_SPECIES
	SURFACE_SPECIES
	RATES
	SELECTED_OUTPUT
	 file TRANSCL.hse
	 reset false 
	 solution true 
	 distance true 
	 time true 
	 ph true 
	 pe true 
	selected_output
	totals Cl
	solution 1001 intial solution mobile zone
	solution 2001 initial solution immobile zone
	solution 3001 upper boundary solution : with Cl
	ph 7 charge
	Cl 0.1
	solution 3002 upper boundary solution : Cl free
	solution 4001 lower boundary solution
	END
-----
TITLE
-----

 : Transient nonequilibrium physical transport

-------------------------------------------
Beginning of initial solution calculations.
-------------------------------------------

Initial solution 1001.	intial solution mobile zone

-----------------------------Solution composition------------------------------

	Elements           Molality       Moles

	Pure water     

----------------------------Description of solution----------------------------

                                       pH  =   7.000    
                                       pe  =   4.000    
                        Activity of water  =   1.000
                           Ionic strength  =  1.001e-007
                       Mass of water (kg)  =  1.000e+000
                 Total alkalinity (eq/kg)  =  1.082e-010
                    Total carbon (mol/kg)  =  0.000e+000
                       Total CO2 (mol/kg)  =  0.000e+000
                      Temperature (deg C)  =  25.000
                  Electrical balance (eq)  = -1.082e-010
 Percent error, 100*(Cat-|An|)/(Cat+|An|)  =  -0.05
                               Iterations  =   0
                                  Total H  = 1.110124e+002
                                  Total O  = 5.550622e+001

----------------------------Distribution of species----------------------------

                                                   Log       Log         Log 
   Species                 Molality    Activity  Molality  Activity     Gamma

   OH-                   1.002e-007  1.001e-007    -6.999    -6.999    -0.000
   H+                    1.001e-007  1.000e-007    -7.000    -7.000    -0.000
   H2O                   5.551e+001  1.000e+000     1.744     0.000     0.000
H(0)            1.416e-025
   H2                    7.079e-026  7.079e-026   -25.150   -25.150     0.000
O(0)            0.000e+000
   O2                    0.000e+000  0.000e+000   -42.080   -42.080     0.000

------------------------------Saturation indices-------------------------------

	Phase               SI log IAP  log KT

	H2(g)           -21.96   21.04   43.00  H2
	H2O(g)           -1.51    0.00    1.51  H2O
	O2(g)           -39.19  -42.08   -2.89  O2

Initial solution 2001.	initial solution immobile zone

-----------------------------Solution composition------------------------------

	Elements           Molality       Moles

	Pure water     

----------------------------Description of solution----------------------------

                                       pH  =   7.000    
                                       pe  =   4.000    
                        Activity of water  =   1.000
                           Ionic strength  =  1.001e-007
                       Mass of water (kg)  =  1.000e+000
                 Total alkalinity (eq/kg)  =  1.082e-010
                    Total carbon (mol/kg)  =  0.000e+000
                       Total CO2 (mol/kg)  =  0.000e+000
                      Temperature (deg C)  =  25.000
                  Electrical balance (eq)  = -1.082e-010
 Percent error, 100*(Cat-|An|)/(Cat+|An|)  =  -0.05
                               Iterations  =   0
                                  Total H  = 1.110124e+002
                                  Total O  = 5.550622e+001

----------------------------Distribution of species----------------------------

                                                   Log       Log         Log 
   Species                 Molality    Activity  Molality  Activity     Gamma

   OH-                   1.002e-007  1.001e-007    -6.999    -6.999    -0.000
   H+                    1.001e-007  1.000e-007    -7.000    -7.000    -0.000
   H2O                   5.551e+001  1.000e+000     1.744     0.000     0.000
H(0)            1.416e-025
   H2                    7.079e-026  7.079e-026   -25.150   -25.150     0.000
O(0)            0.000e+000
   O2                    0.000e+000  0.000e+000   -42.080   -42.080     0.000

------------------------------Saturation indices-------------------------------

	Phase               SI log IAP  log KT

	H2(g)           -21.96   21.04   43.00  H2
	H2O(g)           -1.51    0.00    1.51  H2O
	O2(g)           -39.19  -42.08   -2.89  O2

Initial solution 3001.	upper boundary solution : with Cl

-----------------------------Solution composition------------------------------

	Elements           Molality       Moles

	Cl               1.000e-004  1.000e-004

----------------------------Description of solution----------------------------

                                       pH  =   4.005      Charge balance
                                       pe  =   4.000    
                        Activity of water  =   1.000
                           Ionic strength  =  1.000e-004
                       Mass of water (kg)  =  1.000e+000
                 Total alkalinity (eq/kg)  = -1.000e-004
                    Total carbon (mol/kg)  =  0.000e+000
                       Total CO2 (mol/kg)  =  0.000e+000
                      Temperature (deg C)  =  25.000
                  Electrical balance (eq)  =  5.434e-013
 Percent error, 100*(Cat-|An|)/(Cat+|An|)  =   0.00
                               Iterations  =   8
                                  Total H  = 1.110125e+002
                                  Total O  = 5.550622e+001

----------------------------Distribution of species----------------------------

                                                   Log       Log         Log 
   Species                 Molality    Activity  Molality  Activity     Gamma

   H+                    1.000e-004  9.887e-005    -4.000    -4.005    -0.005
   OH-                   1.024e-010  1.013e-010    -9.990    -9.995    -0.005
   H2O                   5.551e+001  1.000e+000     1.744    -0.000     0.000
Cl              1.000e-004
   Cl-                   1.000e-004  9.885e-005    -4.000    -4.005    -0.005
H(0)            1.384e-019
   H2                    6.920e-020  6.920e-020   -19.160   -19.160     0.000
O(0)            0.000e+000
   O2                    0.000e+000  0.000e+000   -54.060   -54.060     0.000

------------------------------Saturation indices-------------------------------

	Phase               SI log IAP  log KT

	H2(g)           -15.97   27.03   43.00  H2
	H2O(g)           -1.51   -0.00    1.51  H2O
	O2(g)           -51.17  -54.06   -2.89  O2

Initial solution 3002.	upper boundary solution : Cl free

-----------------------------Solution composition------------------------------

	Elements           Molality       Moles

	Pure water     

----------------------------Description of solution----------------------------

                                       pH  =   7.000    
                                       pe  =   4.000    
                        Activity of water  =   1.000
                           Ionic strength  =  1.001e-007
                       Mass of water (kg)  =  1.000e+000
                 Total alkalinity (eq/kg)  =  1.082e-010
                    Total carbon (mol/kg)  =  0.000e+000
                       Total CO2 (mol/kg)  =  0.000e+000
                      Temperature (deg C)  =  25.000
                  Electrical balance (eq)  = -1.082e-010
 Percent error, 100*(Cat-|An|)/(Cat+|An|)  =  -0.05
                               Iterations  =   0
                                  Total H  = 1.110124e+002
                                  Total O  = 5.550622e+001

----------------------------Distribution of species----------------------------

                                                   Log       Log         Log 
   Species                 Molality    Activity  Molality  Activity     Gamma

   OH-                   1.002e-007  1.001e-007    -6.999    -6.999    -0.000
   H+                    1.001e-007  1.000e-007    -7.000    -7.000    -0.000
   H2O                   5.551e+001  1.000e+000     1.744     0.000     0.000
H(0)            1.416e-025
   H2                    7.079e-026  7.079e-026   -25.150   -25.150     0.000
O(0)            0.000e+000
   O2                    0.000e+000  0.000e+000   -42.080   -42.080     0.000

------------------------------Saturation indices-------------------------------

	Phase               SI log IAP  log KT

	H2(g)           -21.96   21.04   43.00  H2
	H2O(g)           -1.51    0.00    1.51  H2O
	O2(g)           -39.19  -42.08   -2.89  O2

Initial solution 4001.	lower boundary solution

-----------------------------Solution composition------------------------------

	Elements           Molality       Moles

	Pure water     

----------------------------Description of solution----------------------------

                                       pH  =   7.000    
                                       pe  =   4.000    
                        Activity of water  =   1.000
                           Ionic strength  =  1.001e-007
                       Mass of water (kg)  =  1.000e+000
                 Total alkalinity (eq/kg)  =  1.082e-010
                    Total carbon (mol/kg)  =  0.000e+000
                       Total CO2 (mol/kg)  =  0.000e+000
                      Temperature (deg C)  =  25.000
                  Electrical balance (eq)  = -1.082e-010
 Percent error, 100*(Cat-|An|)/(Cat+|An|)  =  -0.05
                               Iterations  =   0
                                  Total H  = 1.110124e+002
                                  Total O  = 5.550622e+001

----------------------------Distribution of species----------------------------

                                                   Log       Log         Log 
   Species                 Molality    Activity  Molality  Activity     Gamma

   OH-                   1.002e-007  1.001e-007    -6.999    -6.999    -0.000
   H+                    1.001e-007  1.000e-007    -7.000    -7.000    -0.000
   H2O                   5.551e+001  1.000e+000     1.744     0.000     0.000
H(0)            1.416e-025
   H2                    7.079e-026  7.079e-026   -25.150   -25.150     0.000
O(0)            0.000e+000
   O2                    0.000e+000  0.000e+000   -42.080   -42.080     0.000

------------------------------Saturation indices-------------------------------

	Phase               SI log IAP  log KT

	H2(g)           -21.96   21.04   43.00  H2
	H2O(g)           -1.51    0.00    1.51  H2O
	O2(g)           -39.19  -42.08   -2.89  O2

------------------
End of simulation.
------------------

------------------------------------
Reading input data for simulation 2.
------------------------------------

	MIX 1 
		1001	0.192132	
	 SAVE SOLUTION	1	 
	 END
-----------------------------------------
Beginning of batch-reaction calculations.
-----------------------------------------

Reaction step 1.

Using mix 1.	

Mixture 1.	

	 1.921e-001 Solution 1001	intial solution mobile zone                            

-----------------------------Solution composition------------------------------

	Elements           Molality       Moles

	Pure water     

----------------------------Description of solution----------------------------

                                       pH  =   7.000      Charge balance
                                       pe  =  11.691      Adjusted to redox equilibrium
                        Activity of water  =   1.000
                           Ionic strength  =  1.001e-007
                       Mass of water (kg)  =  1.921e-001
                 Total alkalinity (eq/kg)  =  1.082e-010
                    Total carbon (mol/kg)  =  0.000e+000
                       Total CO2 (mol/kg)  =  0.000e+000
                      Temperature (deg C)  =  25.000
                  Electrical balance (eq)  = -2.079e-011
 Percent error, 100*(Cat-|An|)/(Cat+|An|)  =  -0.05
                               Iterations  =   7
                                  Total H  = 2.132904e+001
                                  Total O  = 1.066452e+001

----------------------------Distribution of species----------------------------

                                                   Log       Log         Log 
   Species                 Molality    Activity  Molality  Activity     Gamma

   OH-                   1.001e-007  1.001e-007    -6.999    -7.000    -0.000
   H+                    1.000e-007  1.000e-007    -7.000    -7.000    -0.000
   H2O                   5.551e+001  1.000e+000     1.744    -0.000     0.000
H(0)            0.000e+000
   H2                    0.000e+000  0.000e+000   -40.533   -40.533     0.000
O(0)            9.702e-012
   O2                    4.851e-012  4.851e-012   -11.314   -11.314     0.000

------------------------------Saturation indices-------------------------------

	Phase               SI log IAP  log KT

	H2(g)           -37.34    5.66   43.00  H2
	H2O(g)           -1.51   -0.00    1.51  H2O
	O2(g)            -8.42  -11.31   -2.89  O2

------------------
End of simulation.
------------------

------------------------------------
Reading input data for simulation 3.
------------------------------------

	MIX 2 
		1001	0.192132	
	 SAVE SOLUTION	2	 
	 END
-----------------------------------------
Beginning of batch-reaction calculations.
-----------------------------------------

Reaction step 1.

Using mix 2.	

Mixture 2.	

	 1.921e-001 Solution 1001	intial solution mobile zone                            

-----------------------------Solution composition------------------------------

	Elements           Molality       Moles

	Pure water     

----------------------------Description of solution----------------------------

                                       pH  =   7.000      Charge balance
                                       pe  =  11.691      Adjusted to redox equilibrium
                        Activity of water  =   1.000
                           Ionic strength  =  1.001e-007
                       Mass of water (kg)  =  1.921e-001
                 Total alkalinity (eq/kg)  =  1.082e-010
                    Total carbon (mol/kg)  =  0.000e+000
                       Total CO2 (mol/kg)  =  0.000e+000
                      Temperature (deg C)  =  25.000
                  Electrical balance (eq)  = -2.079e-011
 Percent error, 100*(Cat-|An|)/(Cat+|An|)  =  -0.05
                               Iterations  =   7
                                  Total H  = 2.132904e+001
                                  Total O  = 1.066452e+001

----------------------------Distribution of species----------------------------

                                                   Log       Log         Log 
   Species                 Molality    Activity  Molality  Activity     Gamma

   OH-                   1.001e-007  1.001e-007    -6.999    -7.000    -0.000
   H+                    1.000e-007  1.000e-007    -7.000    -7.000    -0.000
   H2O                   5.551e+001  1.000e+000     1.744    -0.000     0.000
H(0)            0.000e+000
   H2                    0.000e+000  0.000e+000   -40.533   -40.533     0.000
O(0)            9.702e-012
   O2                    4.851e-012  4.851e-012   -11.314   -11.314     0.000

------------------------------Saturation indices-------------------------------

	Phase               SI log IAP  log KT

	H2(g)           -37.34    5.66   43.00  H2
	H2O(g)           -1.51   -0.00    1.51  H2O
	O2(g)            -8.42  -11.31   -2.89  O2

------------------
End of simulation.
------------------

------------------------------------
Reading input data for simulation 4.
------------------------------------

	MIX 3 
		1001	0.192132	
	 SAVE SOLUTION	3	 
	 END
-----------------------------------------
Beginning of batch-reaction calculations.
-----------------------------------------

Reaction step 1.

Using mix 3.	

Mixture 3.	

	 1.921e-001 Solution 1001	intial solution mobile zone                            

-----------------------------Solution composition------------------------------

	Elements           Molality       Moles

	Pure water     

----------------------------Description of solution----------------------------

                                       pH  =   7.000      Charge balance
                                       pe  =  11.691      Adjusted to redox equilibrium
                        Activity of water  =   1.000
                           Ionic strength  =  1.001e-007
                       Mass of water (kg)  =  1.921e-001
                 Total alkalinity (eq/kg)  =  1.082e-010
                    Total carbon (mol/kg)  =  0.000e+000
                       Total CO2 (mol/kg)  =  0.000e+000
                      Temperature (deg C)  =  25.000
                  Electrical balance (eq)  = -2.079e-011
 Percent error, 100*(Cat-|An|)/(Cat+|An|)  =  -0.05
                               Iterations  =   7
                                  Total H  = 2.132904e+001
                                  Total O  = 1.066452e+001

----------------------------Distribution of species----------------------------

                                                   Log       Log         Log 
   Species                 Molality    Activity  Molality  Activity     Gamma

   OH-                   1.001e-007  1.001e-007    -6.999    -7.000    -0.000
   H+                    1.000e-007  1.000e-007    -7.000    -7.000    -0.000
   H2O                   5.551e+001  1.000e+000     1.744    -0.000     0.000
H(0)            0.000e+000
   H2                    0.000e+000  0.000e+000   -40.533   -40.533     0.000
O(0)            9.702e-012
   O2                    4.851e-012  4.851e-012   -11.314   -11.314     0.000

------------------------------Saturation indices-------------------------------

	Phase               SI log IAP  log KT

	H2(g)           -37.34    5.66   43.00  H2
	H2O(g)           -1.51   -0.00    1.51  H2O
	O2(g)            -8.42  -11.31   -2.89  O2

------------------
End of simulation.
------------------

------------------------------------
Reading input data for simulation 5.
------------------------------------

	MIX 4 
		1001	0.192132	
	 SAVE SOLUTION	4	 
	 END
-----------------------------------------
Beginning of batch-reaction calculations.
-----------------------------------------

Reaction step 1.

Using mix 4.	

Mixture 4.	

	 1.921e-001 Solution 1001	intial solution mobile zone                            

-----------------------------Solution composition------------------------------

	Elements           Molality       Moles

	Pure water     

----------------------------Description of solution----------------------------

                                       pH  =   7.000      Charge balance
                                       pe  =  11.691      Adjusted to redox equilibrium
                        Activity of water  =   1.000
                           Ionic strength  =  1.001e-007
                       Mass of water (kg)  =  1.921e-001
                 Total alkalinity (eq/kg)  =  1.082e-010
                    Total carbon (mol/kg)  =  0.000e+000
                       Total CO2 (mol/kg)  =  0.000e+000
                      Temperature (deg C)  =  25.000
                  Electrical balance (eq)  = -2.079e-011
 Percent error, 100*(Cat-|An|)/(Cat+|An|)  =  -0.05
                               Iterations  =   7
                                  Total H  = 2.132904e+001
                                  Total O  = 1.066452e+001

----------------------------Distribution of species----------------------------

                                                   Log       Log         Log 
   Species                 Molality    Activity  Molality  Activity     Gamma

   OH-                   1.001e-007  1.001e-007    -6.999    -7.000    -0.000
   H+                    1.000e-007  1.000e-007    -7.000    -7.000    -0.000
   H2O                   5.551e+001  1.000e+000     1.744    -0.000     0.000
H(0)            0.000e+000
   H2                    0.000e+000  0.000e+000   -40.533   -40.533     0.000
O(0)            9.702e-012
   O2                    4.851e-012  4.851e-012   -11.314   -11.314     0.000

------------------------------Saturation indices-------------------------------

	Phase               SI log IAP  log KT

	H2(g)           -37.34    5.66   43.00  H2
	H2O(g)           -1.51   -0.00    1.51  H2O
	O2(g)            -8.42  -11.31   -2.89  O2

------------------
End of simulation.
------------------

------------------------------------
Reading input data for simulation 6.
------------------------------------

	MIX 5 
		1001	0.192132	
	 SAVE SOLUTION	5	 
	 END
-----------------------------------------
Beginning of batch-reaction calculations.
-----------------------------------------

Reaction step 1.

Using mix 5.	

Mixture 5.	

	 1.921e-001 Solution 1001	intial solution mobile zone                            

-----------------------------Solution composition------------------------------

	Elements           Molality       Moles

	Pure water     

----------------------------Description of solution----------------------------

                                       pH  =   7.000      Charge balance
                                       pe  =  11.691      Adjusted to redox equilibrium
                        Activity of water  =   1.000
                           Ionic strength  =  1.001e-007
                       Mass of water (kg)  =  1.921e-001
                 Total alkalinity (eq/kg)  =  1.082e-010
                    Total carbon (mol/kg)  =  0.000e+000
                       Total CO2 (mol/kg)  =  0.000e+000
                      Temperature (deg C)  =  25.000
                  Electrical balance (eq)  = -2.079e-011
 Percent error, 100*(Cat-|An|)/(Cat+|An|)  =  -0.05
                               Iterations  =   7
                                  Total H  = 2.132904e+001
                                  Total O  = 1.066452e+001

----------------------------Distribution of species----------------------------

                                                   Log       Log         Log 
   Species                 Molality    Activity  Molality  Activity     Gamma

   OH-                   1.001e-007  1.001e-007    -6.999    -7.000    -0.000
   H+                    1.000e-007  1.000e-007    -7.000    -7.000    -0.000
   H2O                   5.551e+001  1.000e+000     1.744    -0.000     0.000
H(0)            0.000e+000
   H2                    0.000e+000  0.000e+000   -40.533   -40.533     0.000
O(0)            9.702e-012
   O2                    4.851e-012  4.851e-012   -11.314   -11.314     0.000

------------------------------Saturation indices-------------------------------

	Phase               SI log IAP  log KT

	H2(g)           -37.34    5.66   43.00  H2
	H2O(g)           -1.51   -0.00    1.51  H2O
	O2(g)            -8.42  -11.31   -2.89  O2

------------------
End of simulation.
------------------

------------------------------------
Reading input data for simulation 7.
------------------------------------

	MIX 6 
		1001	0.192132	
	 SAVE SOLUTION	6	 
	 END
-----------------------------------------
Beginning of batch-reaction calculations.
-----------------------------------------

Reaction step 1.

Using mix 6.	

Mixture 6.	

	 1.921e-001 Solution 1001	intial solution mobile zone                            

-----------------------------Solution composition------------------------------

	Elements           Molality       Moles

	Pure water     

----------------------------Description of solution----------------------------

                                       pH  =   7.000      Charge balance
                                       pe  =  11.691      Adjusted to redox equilibrium
                        Activity of water  =   1.000
                           Ionic strength  =  1.001e-007
                       Mass of water (kg)  =  1.921e-001
                 Total alkalinity (eq/kg)  =  1.082e-010
                    Total carbon (mol/kg)  =  0.000e+000
                       Total CO2 (mol/kg)  =  0.000e+000
                      Temperature (deg C)  =  25.000
                  Electrical balance (eq)  = -2.079e-011
 Percent error, 100*(Cat-|An|)/(Cat+|An|)  =  -0.05
                               Iterations  =   7
                                  Total H  = 2.132904e+001
                                  Total O  = 1.066452e+001

----------------------------Distribution of species----------------------------

                                                   Log       Log         Log 
   Species                 Molality    Activity  Molality  Activity     Gamma

   OH-                   1.001e-007  1.001e-007    -6.999    -7.000    -0.000
   H+                    1.000e-007  1.000e-007    -7.000    -7.000    -0.000
   H2O                   5.551e+001  1.000e+000     1.744    -0.000     0.000
H(0)            0.000e+000
   H2                    0.000e+000  0.000e+000   -40.533   -40.533     0.000
O(0)            9.702e-012
   O2                    4.851e-012  4.851e-012   -11.314   -11.314     0.000

------------------------------Saturation indices-------------------------------

	Phase               SI log IAP  log KT

	H2(g)           -37.34    5.66   43.00  H2
	H2O(g)           -1.51   -0.00    1.51  H2O
	O2(g)            -8.42  -11.31   -2.89  O2

------------------
End of simulation.
------------------

------------------------------------
Reading input data for simulation 8.
------------------------------------

	MIX 7 
		1001	0.192132	
	 SAVE SOLUTION	7	 
	 END
-----------------------------------------
Beginning of batch-reaction calculations.
-----------------------------------------

Reaction step 1.

Using mix 7.	

Mixture 7.	

	 1.921e-001 Solution 1001	intial solution mobile zone                            

-----------------------------Solution composition------------------------------

	Elements           Molality       Moles

	Pure water     

----------------------------Description of solution----------------------------

                                       pH  =   7.000      Charge balance
                                       pe  =  11.691      Adjusted to redox equilibrium
                        Activity of water  =   1.000
                           Ionic strength  =  1.001e-007
                       Mass of water (kg)  =  1.921e-001
                 Total alkalinity (eq/kg)  =  1.082e-010
                    Total carbon (mol/kg)  =  0.000e+000
                       Total CO2 (mol/kg)  =  0.000e+000
                      Temperature (deg C)  =  25.000
                  Electrical balance (eq)  = -2.079e-011
 Percent error, 100*(Cat-|An|)/(Cat+|An|)  =  -0.05
                               Iterations  =   7
                                  Total H  = 2.132904e+001
                                  Total O  = 1.066452e+001

----------------------------Distribution of species----------------------------

                                                   Log       Log         Log 
   Species                 Molality    Activity  Molality  Activity     Gamma

   OH-                   1.001e-007  1.001e-007    -6.999    -7.000    -0.000
   H+                    1.000e-007  1.000e-007    -7.000    -7.000    -0.000
   H2O                   5.551e+001  1.000e+000     1.744    -0.000     0.000
H(0)            0.000e+000
   H2                    0.000e+000  0.000e+000   -40.533   -40.533     0.000
O(0)            9.702e-012
   O2                    4.851e-012  4.851e-012   -11.314   -11.314     0.000

------------------------------Saturation indices-------------------------------

	Phase               SI log IAP  log KT

	H2(g)           -37.34    5.66   43.00  H2
	H2O(g)           -1.51   -0.00    1.51  H2O
	O2(g)            -8.42  -11.31   -2.89  O2

------------------
End of simulation.
------------------

------------------------------------
Reading input data for simulation 9.
------------------------------------

	MIX 8 
		1001	0.192132	
	 SAVE SOLUTION	8	 
	 END
-----------------------------------------
Beginning of batch-reaction calculations.
-----------------------------------------

Reaction step 1.

Using mix 8.	

Mixture 8.	

	 1.921e-001 Solution 1001	intial solution mobile zone                            

-----------------------------Solution composition------------------------------

	Elements           Molality       Moles

	Pure water     

----------------------------Description of solution----------------------------

                                       pH  =   7.000      Charge balance
                                       pe  =  11.691      Adjusted to redox equilibrium
                        Activity of water  =   1.000
                           Ionic strength  =  1.001e-007
                       Mass of water (kg)  =  1.921e-001
                 Total alkalinity (eq/kg)  =  1.082e-010
                    Total carbon (mol/kg)  =  0.000e+000
                       Total CO2 (mol/kg)  =  0.000e+000
                      Temperature (deg C)  =  25.000
                  Electrical balance (eq)  = -2.079e-011
 Percent error, 100*(Cat-|An|)/(Cat+|An|)  =  -0.05
                               Iterations  =   7
                                  Total H  = 2.132904e+001
                                  Total O  = 1.066452e+001

----------------------------Distribution of species----------------------------

                                                   Log       Log         Log 
   Species                 Molality    Activity  Molality  Activity     Gamma

   OH-                   1.001e-007  1.001e-007    -6.999    -7.000    -0.000
   H+                    1.000e-007  1.000e-007    -7.000    -7.000    -0.000
   H2O                   5.551e+001  1.000e+000     1.744    -0.000     0.000
H(0)            0.000e+000
   H2                    0.000e+000  0.000e+000   -40.533   -40.533     0.000
O(0)            9.702e-012
   O2                    4.851e-012  4.851e-012   -11.314   -11.314     0.000

------------------------------Saturation indices-------------------------------

	Phase               SI log IAP  log KT

	H2(g)           -37.34    5.66   43.00  H2
	H2O(g)           -1.51   -0.00    1.51  H2O
	O2(g)            -8.42  -11.31   -2.89  O2

------------------
End of simulation.
------------------

-------------------------------------
Reading input data for simulation 10.
-------------------------------------

	MIX 9 
		1001	0.192132	
	 SAVE SOLUTION	9	 
	 END
-----------------------------------------
Beginning of batch-reaction calculations.
-----------------------------------------

Reaction step 1.

Using mix 9.	

Mixture 9.	

	 1.921e-001 Solution 1001	intial solution mobile zone                            

-----------------------------Solution composition------------------------------

	Elements           Molality       Moles

	Pure water     

----------------------------Description of solution----------------------------

                                       pH  =   7.000      Charge balance
                                       pe  =  11.691      Adjusted to redox equilibrium
                        Activity of water  =   1.000
                           Ionic strength  =  1.001e-007
                       Mass of water (kg)  =  1.921e-001
                 Total alkalinity (eq/kg)  =  1.082e-010
                    Total carbon (mol/kg)  =  0.000e+000
                       Total CO2 (mol/kg)  =  0.000e+000
                      Temperature (deg C)  =  25.000
                  Electrical balance (eq)  = -2.079e-011
 Percent error, 100*(Cat-|An|)/(Cat+|An|)  =  -0.05
                               Iterations  =   7
                                  Total H  = 2.132904e+001
                                  Total O  = 1.066452e+001

----------------------------Distribution of species----------------------------

                                                   Log       Log         Log 
   Species                 Molality    Activity  Molality  Activity     Gamma

   OH-                   1.001e-007  1.001e-007    -6.999    -7.000    -0.000
   H+                    1.000e-007  1.000e-007    -7.000    -7.000    -0.000
   H2O                   5.551e+001  1.000e+000     1.744    -0.000     0.000
H(0)            0.000e+000
   H2                    0.000e+000  0.000e+000   -40.533   -40.533     0.000
O(0)            9.702e-012
   O2                    4.851e-012  4.851e-012   -11.314   -11.314     0.000

------------------------------Saturation indices-------------------------------

	Phase               SI log IAP  log KT

	H2(g)           -37.34    5.66   43.00  H2
	H2O(g)           -1.51   -0.00    1.51  H2O
	O2(g)            -8.42  -11.31   -2.89  O2

------------------
End of simulation.
------------------

-------------------------------------
Reading input data for simulation 11.
-------------------------------------

	MIX 10 
		1001	0.192132	
	 SAVE SOLUTION	10	 
	 END
-----------------------------------------
Beginning of batch-reaction calculations.
-----------------------------------------

Reaction step 1.

Using mix 10.	

Mixture 10.	

	 1.921e-001 Solution 1001	intial solution mobile zone                            

-----------------------------Solution composition------------------------------

	Elements           Molality       Moles

	Pure water     

----------------------------Description of solution----------------------------

                                       pH  =   7.000      Charge balance
                                       pe  =  11.691      Adjusted to redox equilibrium
                        Activity of water  =   1.000
                           Ionic strength  =  1.001e-007
                       Mass of water (kg)  =  1.921e-001
                 Total alkalinity (eq/kg)  =  1.082e-010
                    Total carbon (mol/kg)  =  0.000e+000
                       Total CO2 (mol/kg)  =  0.000e+000
                      Temperature (deg C)  =  25.000
                  Electrical balance (eq)  = -2.079e-011
 Percent error, 100*(Cat-|An|)/(Cat+|An|)  =  -0.05
                               Iterations  =   7
                                  Total H  = 2.132904e+001
                                  Total O  = 1.066452e+001

----------------------------Distribution of species----------------------------

                                                   Log       Log         Log 
   Species                 Molality    Activity  Molality  Activity     Gamma

   OH-                   1.001e-007  1.001e-007    -6.999    -7.000    -0.000
   H+                    1.000e-007  1.000e-007    -7.000    -7.000    -0.000
   H2O                   5.551e+001  1.000e+000     1.744    -0.000     0.000
H(0)            0.000e+000
   H2                    0.000e+000  0.000e+000   -40.533   -40.533     0.000
O(0)            9.702e-012
   O2                    4.851e-012  4.851e-012   -11.314   -11.314     0.000

------------------------------Saturation indices-------------------------------

	Phase               SI log IAP  log KT

	H2(g)           -37.34    5.66   43.00  H2
	H2O(g)           -1.51   -0.00    1.51  H2O
	O2(g)            -8.42  -11.31   -2.89  O2

------------------
End of simulation.
------------------

-------------------------------------
Reading input data for simulation 12.
-------------------------------------

	MIX 11 
		1001	0.192132	
	 SAVE SOLUTION	11	 
	 END
-----------------------------------------
Beginning of batch-reaction calculations.
-----------------------------------------

Reaction step 1.

Using mix 11.	

Mixture 11.	

	 1.921e-001 Solution 1001	intial solution mobile zone                            

-----------------------------Solution composition------------------------------

	Elements           Molality       Moles

	Pure water     

----------------------------Description of solution----------------------------

                                       pH  =   7.000      Charge balance
                                       pe  =  11.691      Adjusted to redox equilibrium
                        Activity of water  =   1.000
                           Ionic strength  =  1.001e-007
                       Mass of water (kg)  =  1.921e-001
                 Total alkalinity (eq/kg)  =  1.082e-010
                    Total carbon (mol/kg)  =  0.000e+000
                       Total CO2 (mol/kg)  =  0.000e+000
                      Temperature (deg C)  =  25.000
                  Electrical balance (eq)  = -2.079e-011
 Percent error, 100*(Cat-|An|)/(Cat+|An|)  =  -0.05
                               Iterations  =   7
                                  Total H  = 2.132904e+001
                                  Total O  = 1.066452e+001

----------------------------Distribution of species----------------------------

                                                   Log       Log         Log 
   Species                 Molality    Activity  Molality  Activity     Gamma

   OH-                   1.001e-007  1.001e-007    -6.999    -7.000    -0.000
   H+                    1.000e-007  1.000e-007    -7.000    -7.000    -0.000
   H2O                   5.551e+001  1.000e+000     1.744    -0.000     0.000
H(0)            0.000e+000
   H2                    0.000e+000  0.000e+000   -40.533   -40.533     0.000
O(0)            9.702e-012
   O2                    4.851e-012  4.851e-012   -11.314   -11.314     0.000

------------------------------Saturation indices-------------------------------

	Phase               SI log IAP  log KT

	H2(g)           -37.34    5.66   43.00  H2
	H2O(g)           -1.51   -0.00    1.51  H2O
	O2(g)            -8.42  -11.31   -2.89  O2

------------------
End of simulation.
------------------

-------------------------------------
Reading input data for simulation 13.
-------------------------------------

	MIX 12 
		1001	0.192132	
	 SAVE SOLUTION	12	 
	 END
-----------------------------------------
Beginning of batch-reaction calculations.
-----------------------------------------

Reaction step 1.

Using mix 12.	

Mixture 12.	

	 1.921e-001 Solution 1001	intial solution mobile zone                            

-----------------------------Solution composition------------------------------

	Elements           Molality       Moles

	Pure water     

----------------------------Description of solution----------------------------

                                       pH  =   7.000      Charge balance
                                       pe  =  11.691      Adjusted to redox equilibrium
                        Activity of water  =   1.000
                           Ionic strength  =  1.001e-007
                       Mass of water (kg)  =  1.921e-001
                 Total alkalinity (eq/kg)  =  1.082e-010
                    Total carbon (mol/kg)  =  0.000e+000
                       Total CO2 (mol/kg)  =  0.000e+000
                      Temperature (deg C)  =  25.000
                  Electrical balance (eq)  = -2.079e-011
 Percent error, 100*(Cat-|An|)/(Cat+|An|)  =  -0.05
                               Iterations  =   7
                                  Total H  = 2.132904e+001
                                  Total O  = 1.066452e+001

----------------------------Distribution of species----------------------------

                                                   Log       Log         Log 
   Species                 Molality    Activity  Molality  Activity     Gamma

   OH-                   1.001e-007  1.001e-007    -6.999    -7.000    -0.000
   H+                    1.000e-007  1.000e-007    -7.000    -7.000    -0.000
   H2O                   5.551e+001  1.000e+000     1.744    -0.000     0.000
H(0)            0.000e+000
   H2                    0.000e+000  0.000e+000   -40.533   -40.533     0.000
O(0)            9.702e-012
   O2                    4.851e-012  4.851e-012   -11.314   -11.314     0.000

------------------------------Saturation indices-------------------------------

	Phase               SI log IAP  log KT

	H2(g)           -37.34    5.66   43.00  H2
	H2O(g)           -1.51   -0.00    1.51  H2O
	O2(g)            -8.42  -11.31   -2.89  O2

------------------
End of simulation.
------------------

-------------------------------------
Reading input data for simulation 14.
-------------------------------------

	MIX 13 
		1001	0.192132	
	 SAVE SOLUTION	13	 
	 END
-----------------------------------------
Beginning of batch-reaction calculations.
-----------------------------------------

Reaction step 1.

Using mix 13.	

Mixture 13.	

	 1.921e-001 Solution 1001	intial solution mobile zone                            

-----------------------------Solution composition------------------------------

	Elements           Molality       Moles

	Pure water     

----------------------------Description of solution----------------------------

                                       pH  =   7.000      Charge balance
                                       pe  =  11.691      Adjusted to redox equilibrium
                        Activity of water  =   1.000
                           Ionic strength  =  1.001e-007
                       Mass of water (kg)  =  1.921e-001
                 Total alkalinity (eq/kg)  =  1.082e-010
                    Total carbon (mol/kg)  =  0.000e+000
                       Total CO2 (mol/kg)  =  0.000e+000
                      Temperature (deg C)  =  25.000
                  Electrical balance (eq)  = -2.079e-011
 Percent error, 100*(Cat-|An|)/(Cat+|An|)  =  -0.05
                               Iterations  =   7
                                  Total H  = 2.132904e+001
                                  Total O  = 1.066452e+001

----------------------------Distribution of species----------------------------

                                                   Log       Log         Log 
   Species                 Molality    Activity  Molality  Activity     Gamma

   OH-                   1.001e-007  1.001e-007    -6.999    -7.000    -0.000
   H+                    1.000e-007  1.000e-007    -7.000    -7.000    -0.000
   H2O                   5.551e+001  1.000e+000     1.744    -0.000     0.000
H(0)            0.000e+000
   H2                    0.000e+000  0.000e+000   -40.533   -40.533     0.000
O(0)            9.702e-012
   O2                    4.851e-012  4.851e-012   -11.314   -11.314     0.000

------------------------------Saturation indices-------------------------------

	Phase               SI log IAP  log KT

	H2(g)           -37.34    5.66   43.00  H2
	H2O(g)           -1.51   -0.00    1.51  H2O
	O2(g)            -8.42  -11.31   -2.89  O2

------------------
End of simulation.
------------------

-------------------------------------
Reading input data for simulation 15.
-------------------------------------

	MIX 14 
		1001	0.192132	
	 SAVE SOLUTION	14	 
	 END
-----------------------------------------
Beginning of batch-reaction calculations.
-----------------------------------------

Reaction step 1.

Using mix 14.	

Mixture 14.	

	 1.921e-001 Solution 1001	intial solution mobile zone                            

-----------------------------Solution composition------------------------------

	Elements           Molality       Moles

	Pure water     

----------------------------Description of solution----------------------------

                                       pH  =   7.000      Charge balance
                                       pe  =  11.691      Adjusted to redox equilibrium
                        Activity of water  =   1.000
                           Ionic strength  =  1.001e-007
                       Mass of water (kg)  =  1.921e-001
                 Total alkalinity (eq/kg)  =  1.082e-010
                    Total carbon (mol/kg)  =  0.000e+000
                       Total CO2 (mol/kg)  =  0.000e+000
                      Temperature (deg C)  =  25.000
                  Electrical balance (eq)  = -2.079e-011
 Percent error, 100*(Cat-|An|)/(Cat+|An|)  =  -0.05
                               Iterations  =   7
                                  Total H  = 2.132904e+001
                                  Total O  = 1.066452e+001

----------------------------Distribution of species----------------------------

                                                   Log       Log         Log 
   Species                 Molality    Activity  Molality  Activity     Gamma

   OH-                   1.001e-007  1.001e-007    -6.999    -7.000    -0.000
   H+                    1.000e-007  1.000e-007    -7.000    -7.000    -0.000
   H2O                   5.551e+001  1.000e+000     1.744    -0.000     0.000
H(0)            0.000e+000
   H2                    0.000e+000  0.000e+000   -40.533   -40.533     0.000
O(0)            9.702e-012
   O2                    4.851e-012  4.851e-012   -11.314   -11.314     0.000

------------------------------Saturation indices-------------------------------

	Phase               SI log IAP  log KT

	H2(g)           -37.34    5.66   43.00  H2
	H2O(g)           -1.51   -0.00    1.51  H2O
	O2(g)            -8.42  -11.31   -2.89  O2

------------------
End of simulation.
------------------

-------------------------------------
Reading input data for simulation 16.
-------------------------------------

	MIX 15 
		1001	0.192132	
	 SAVE SOLUTION	15	 
	 END
-----------------------------------------
Beginning of batch-reaction calculations.
-----------------------------------------

Reaction step 1.

Using mix 15.	

Mixture 15.	

	 1.921e-001 Solution 1001	intial solution mobile zone                            

-----------------------------Solution composition------------------------------

	Elements           Molality       Moles

	Pure water     

----------------------------Description of solution----------------------------

                                       pH  =   7.000      Charge balance
                                       pe  =  11.691      Adjusted to redox equilibrium
                        Activity of water  =   1.000
                           Ionic strength  =  1.001e-007
                       Mass of water (kg)  =  1.921e-001
                 Total alkalinity (eq/kg)  =  1.082e-010
                    Total carbon (mol/kg)  =  0.000e+000
                       Total CO2 (mol/kg)  =  0.000e+000
                      Temperature (deg C)  =  25.000
                  Electrical balance (eq)  = -2.079e-011
 Percent error, 100*(Cat-|An|)/(Cat+|An|)  =  -0.05
                               Iterations  =   7
                                  Total H  = 2.132904e+001
                                  Total O  = 1.066452e+001

----------------------------Distribution of species----------------------------

                                                   Log       Log         Log 
   Species                 Molality    Activity  Molality  Activity     Gamma

   OH-                   1.001e-007  1.001e-007    -6.999    -7.000    -0.000
   H+                    1.000e-007  1.000e-007    -7.000    -7.000    -0.000
   H2O                   5.551e+001  1.000e+000     1.744    -0.000     0.000
H(0)            0.000e+000
   H2                    0.000e+000  0.000e+000   -40.533   -40.533     0.000
O(0)            9.702e-012
   O2                    4.851e-012  4.851e-012   -11.314   -11.314     0.000

------------------------------Saturation indices-------------------------------

	Phase               SI log IAP  log KT

	H2(g)           -37.34    5.66   43.00  H2
	H2O(g)           -1.51   -0.00    1.51  H2O
	O2(g)            -8.42  -11.31   -2.89  O2

------------------
End of simulation.
------------------

-------------------------------------
Reading input data for simulation 17.
-------------------------------------

	MIX 16 
		1001	0.192132	
	 SAVE SOLUTION	16	 
	 END
-----------------------------------------
Beginning of batch-reaction calculations.
-----------------------------------------

Reaction step 1.

Using mix 16.	

Mixture 16.	

	 1.921e-001 Solution 1001	intial solution mobile zone                            

-----------------------------Solution composition------------------------------

	Elements           Molality       Moles

	Pure water     

----------------------------Description of solution----------------------------

                                       pH  =   7.000      Charge balance
                                       pe  =  11.691      Adjusted to redox equilibrium
                        Activity of water  =   1.000
                           Ionic strength  =  1.001e-007
                       Mass of water (kg)  =  1.921e-001
                 Total alkalinity (eq/kg)  =  1.082e-010
                    Total carbon (mol/kg)  =  0.000e+000
                       Total CO2 (mol/kg)  =  0.000e+000
                      Temperature (deg C)  =  25.000
                  Electrical balance (eq)  = -2.079e-011
 Percent error, 100*(Cat-|An|)/(Cat+|An|)  =  -0.05
                               Iterations  =   7
                                  Total H  = 2.132904e+001
                                  Total O  = 1.066452e+001

----------------------------Distribution of species----------------------------

                                                   Log       Log         Log 
   Species                 Molality    Activity  Molality  Activity     Gamma

   OH-                   1.001e-007  1.001e-007    -6.999    -7.000    -0.000
   H+                    1.000e-007  1.000e-007    -7.000    -7.000    -0.000
   H2O                   5.551e+001  1.000e+000     1.744    -0.000     0.000
H(0)            0.000e+000
   H2                    0.000e+000  0.000e+000   -40.533   -40.533     0.000
O(0)            9.702e-012
   O2                    4.851e-012  4.851e-012   -11.314   -11.314     0.000

------------------------------Saturation indices-------------------------------

	Phase               SI log IAP  log KT

	H2(g)           -37.34    5.66   43.00  H2
	H2O(g)           -1.51   -0.00    1.51  H2O
	O2(g)            -8.42  -11.31   -2.89  O2

------------------
End of simulation.
------------------

-------------------------------------
Reading input data for simulation 18.
-------------------------------------

	MIX 17 
		1001	0.192132	
	 SAVE SOLUTION	17	 
	 END
-----------------------------------------
Beginning of batch-reaction calculations.
-----------------------------------------

Reaction step 1.

Using mix 17.	

Mixture 17.	

	 1.921e-001 Solution 1001	intial solution mobile zone                            

-----------------------------Solution composition------------------------------

	Elements           Molality       Moles

	Pure water     

----------------------------Description of solution----------------------------

                                       pH  =   7.000      Charge balance
                                       pe  =  11.691      Adjusted to redox equilibrium
                        Activity of water  =   1.000
                           Ionic strength  =  1.001e-007
                       Mass of water (kg)  =  1.921e-001
                 Total alkalinity (eq/kg)  =  1.082e-010
                    Total carbon (mol/kg)  =  0.000e+000
                       Total CO2 (mol/kg)  =  0.000e+000
                      Temperature (deg C)  =  25.000
                  Electrical balance (eq)  = -2.079e-011
 Percent error, 100*(Cat-|An|)/(Cat+|An|)  =  -0.05
                               Iterations  =   7
                                  Total H  = 2.132904e+001
                                  Total O  = 1.066452e+001

----------------------------Distribution of species----------------------------

                                                   Log       Log         Log 
   Species                 Molality    Activity  Molality  Activity     Gamma

   OH-                   1.001e-007  1.001e-007    -6.999    -7.000    -0.000
   H+                    1.000e-007  1.000e-007    -7.000    -7.000    -0.000
   H2O                   5.551e+001  1.000e+000     1.744    -0.000     0.000
H(0)            0.000e+000
   H2                    0.000e+000  0.000e+000   -40.533   -40.533     0.000
O(0)            9.702e-012
   O2                    4.851e-012  4.851e-012   -11.314   -11.314     0.000

------------------------------Saturation indices-------------------------------

	Phase               SI log IAP  log KT

	H2(g)           -37.34    5.66   43.00  H2
	H2O(g)           -1.51   -0.00    1.51  H2O
	O2(g)            -8.42  -11.31   -2.89  O2

------------------
End of simulation.
------------------

-------------------------------------
Reading input data for simulation 19.
-------------------------------------

	MIX 18 
		1001	0.192132	
	 SAVE SOLUTION	18	 
	 END
-----------------------------------------
Beginning of batch-reaction calculations.
-----------------------------------------

Reaction step 1.

Using mix 18.	

Mixture 18.	

	 1.921e-001 Solution 1001	intial solution mobile zone                            

-----------------------------Solution composition------------------------------

	Elements           Molality       Moles

	Pure water     

----------------------------Description of solution----------------------------

                                       pH  =   7.000      Charge balance
                                       pe  =  11.691      Adjusted to redox equilibrium
                        Activity of water  =   1.000
                           Ionic strength  =  1.001e-007
                       Mass of water (kg)  =  1.921e-001
                 Total alkalinity (eq/kg)  =  1.082e-010
                    Total carbon (mol/kg)  =  0.000e+000
                       Total CO2 (mol/kg)  =  0.000e+000
                      Temperature (deg C)  =  25.000
                  Electrical balance (eq)  = -2.079e-011
 Percent error, 100*(Cat-|An|)/(Cat+|An|)  =  -0.05
                               Iterations  =   7
                                  Total H  = 2.132904e+001
                                  Total O  = 1.066452e+001

----------------------------Distribution of species----------------------------

                                                   Log       Log         Log 
   Species                 Molality    Activity  Molality  Activity     Gamma

   OH-                   1.001e-007  1.001e-007    -6.999    -7.000    -0.000
   H+                    1.000e-007  1.000e-007    -7.000    -7.000    -0.000
   H2O                   5.551e+001  1.000e+000     1.744    -0.000     0.000
H(0)            0.000e+000
   H2                    0.000e+000  0.000e+000   -40.533   -40.533     0.000
O(0)            9.702e-012
   O2                    4.851e-012  4.851e-012   -11.314   -11.314     0.000

------------------------------Saturation indices-------------------------------

	Phase               SI log IAP  log KT

	H2(g)           -37.34    5.66   43.00  H2
	H2O(g)           -1.51   -0.00    1.51  H2O
	O2(g)            -8.42  -11.31   -2.89  O2

------------------
End of simulation.
------------------

-------------------------------------
Reading input data for simulation 20.
-------------------------------------

	MIX 19 
		1001	0.192132	
	 SAVE SOLUTION	19	 
	 END
-----------------------------------------
Beginning of batch-reaction calculations.
-----------------------------------------

Reaction step 1.

Using mix 19.	

Mixture 19.	

	 1.921e-001 Solution 1001	intial solution mobile zone                            

-----------------------------Solution composition------------------------------

	Elements           Molality       Moles

	Pure water     

----------------------------Description of solution----------------------------

                                       pH  =   7.000      Charge balance
                                       pe  =  11.691      Adjusted to redox equilibrium
                        Activity of water  =   1.000
                           Ionic strength  =  1.001e-007
                       Mass of water (kg)  =  1.921e-001
                 Total alkalinity (eq/kg)  =  1.082e-010
                    Total carbon (mol/kg)  =  0.000e+000
                       Total CO2 (mol/kg)  =  0.000e+000
                      Temperature (deg C)  =  25.000
                  Electrical balance (eq)  = -2.079e-011
 Percent error, 100*(Cat-|An|)/(Cat+|An|)  =  -0.05
                               Iterations  =   7
                                  Total H  = 2.132904e+001
                                  Total O  = 1.066452e+001

----------------------------Distribution of species----------------------------

                                                   Log       Log         Log 
   Species                 Molality    Activity  Molality  Activity     Gamma

   OH-                   1.001e-007  1.001e-007    -6.999    -7.000    -0.000
   H+                    1.000e-007  1.000e-007    -7.000    -7.000    -0.000
   H2O                   5.551e+001  1.000e+000     1.744    -0.000     0.000
H(0)            0.000e+000
   H2                    0.000e+000  0.000e+000   -40.533   -40.533     0.000
O(0)            9.702e-012
   O2                    4.851e-012  4.851e-012   -11.314   -11.314     0.000

------------------------------Saturation indices-------------------------------

	Phase               SI log IAP  log KT

	H2(g)           -37.34    5.66   43.00  H2
	H2O(g)           -1.51   -0.00    1.51  H2O
	O2(g)            -8.42  -11.31   -2.89  O2

------------------
End of simulation.
------------------

-------------------------------------
Reading input data for simulation 21.
-------------------------------------

	MIX 20 
		1001	0.192132	
	 SAVE SOLUTION	20	 
	 END
-----------------------------------------
Beginning of batch-reaction calculations.
-----------------------------------------

Reaction step 1.

Using mix 20.	

Mixture 20.	

	 1.921e-001 Solution 1001	intial solution mobile zone                            

-----------------------------Solution composition------------------------------

	Elements           Molality       Moles

	Pure water     

----------------------------Description of solution----------------------------

                                       pH  =   7.000      Charge balance
                                       pe  =  11.691      Adjusted to redox equilibrium
                        Activity of water  =   1.000
                           Ionic strength  =  1.001e-007
                       Mass of water (kg)  =  1.921e-001
                 Total alkalinity (eq/kg)  =  1.082e-010
                    Total carbon (mol/kg)  =  0.000e+000
                       Total CO2 (mol/kg)  =  0.000e+000
                      Temperature (deg C)  =  25.000
                  Electrical balance (eq)  = -2.079e-011
 Percent error, 100*(Cat-|An|)/(Cat+|An|)  =  -0.05
                               Iterations  =   7
                                  Total H  = 2.132904e+001
                                  Total O  = 1.066452e+001

----------------------------Distribution of species----------------------------

                                                   Log       Log         Log 
   Species                 Molality    Activity  Molality  Activity     Gamma

   OH-                   1.001e-007  1.001e-007    -6.999    -7.000    -0.000
   H+                    1.000e-007  1.000e-007    -7.000    -7.000    -0.000
   H2O                   5.551e+001  1.000e+000     1.744    -0.000     0.000
H(0)            0.000e+000
   H2                    0.000e+000  0.000e+000   -40.533   -40.533     0.000
O(0)            9.702e-012
   O2                    4.851e-012  4.851e-012   -11.314   -11.314     0.000

------------------------------Saturation indices-------------------------------

	Phase               SI log IAP  log KT

	H2(g)           -37.34    5.66   43.00  H2
	H2O(g)           -1.51   -0.00    1.51  H2O
	O2(g)            -8.42  -11.31   -2.89  O2

------------------
End of simulation.
------------------

-------------------------------------
Reading input data for simulation 22.
-------------------------------------

	MIX 21 
		1001	0.192132	
	 SAVE SOLUTION	21	 
	 END
-----------------------------------------
Beginning of batch-reaction calculations.
-----------------------------------------

Reaction step 1.

Using mix 21.	

Mixture 21.	

	 1.921e-001 Solution 1001	intial solution mobile zone                            

-----------------------------Solution composition------------------------------

	Elements           Molality       Moles

	Pure water     

----------------------------Description of solution----------------------------

                                       pH  =   7.000      Charge balance
                                       pe  =  11.691      Adjusted to redox equilibrium
                        Activity of water  =   1.000
                           Ionic strength  =  1.001e-007
                       Mass of water (kg)  =  1.921e-001
                 Total alkalinity (eq/kg)  =  1.082e-010
                    Total carbon (mol/kg)  =  0.000e+000
                       Total CO2 (mol/kg)  =  0.000e+000
                      Temperature (deg C)  =  25.000
                  Electrical balance (eq)  = -2.079e-011
 Percent error, 100*(Cat-|An|)/(Cat+|An|)  =  -0.05
                               Iterations  =   7
                                  Total H  = 2.132904e+001
                                  Total O  = 1.066452e+001

----------------------------Distribution of species----------------------------

                                                   Log       Log         Log 
   Species                 Molality    Activity  Molality  Activity     Gamma

   OH-                   1.001e-007  1.001e-007    -6.999    -7.000    -0.000
   H+                    1.000e-007  1.000e-007    -7.000    -7.000    -0.000
   H2O                   5.551e+001  1.000e+000     1.744    -0.000     0.000
H(0)            0.000e+000
   H2                    0.000e+000  0.000e+000   -40.533   -40.533     0.000
O(0)            9.702e-012
   O2                    4.851e-012  4.851e-012   -11.314   -11.314     0.000

------------------------------Saturation indices-------------------------------

	Phase               SI log IAP  log KT

	H2(g)           -37.34    5.66   43.00  H2
	H2O(g)           -1.51   -0.00    1.51  H2O
	O2(g)            -8.42  -11.31   -2.89  O2

------------------
End of simulation.
------------------

-------------------------------------
Reading input data for simulation 23.
-------------------------------------

	MIX 22 
		1001	0.192132	
	 SAVE SOLUTION	22	 
	 END
-----------------------------------------
Beginning of batch-reaction calculations.
-----------------------------------------

Reaction step 1.

Using mix 22.	

Mixture 22.	

	 1.921e-001 Solution 1001	intial solution mobile zone                            

-----------------------------Solution composition------------------------------

	Elements           Molality       Moles

	Pure water     

----------------------------Description of solution----------------------------

                                       pH  =   7.000      Charge balance
                                       pe  =  11.691      Adjusted to redox equilibrium
                        Activity of water  =   1.000
                           Ionic strength  =  1.001e-007
                       Mass of water (kg)  =  1.921e-001
                 Total alkalinity (eq/kg)  =  1.082e-010
                    Total carbon (mol/kg)  =  0.000e+000
                       Total CO2 (mol/kg)  =  0.000e+000
                      Temperature (deg C)  =  25.000
                  Electrical balance (eq)  = -2.079e-011
 Percent error, 100*(Cat-|An|)/(Cat+|An|)  =  -0.05
                               Iterations  =   7
                                  Total H  = 2.132904e+001
                                  Total O  = 1.066452e+001

----------------------------Distribution of species----------------------------

                                                   Log       Log         Log 
   Species                 Molality    Activity  Molality  Activity     Gamma

   OH-                   1.001e-007  1.001e-007    -6.999    -7.000    -0.000
   H+                    1.000e-007  1.000e-007    -7.000    -7.000    -0.000
   H2O                   5.551e+001  1.000e+000     1.744    -0.000     0.000
H(0)            0.000e+000
   H2                    0.000e+000  0.000e+000   -40.533   -40.533     0.000
O(0)            9.702e-012
   O2                    4.851e-012  4.851e-012   -11.314   -11.314     0.000

------------------------------Saturation indices-------------------------------

	Phase               SI log IAP  log KT

	H2(g)           -37.34    5.66   43.00  H2
	H2O(g)           -1.51   -0.00    1.51  H2O
	O2(g)            -8.42  -11.31   -2.89  O2

------------------
End of simulation.
------------------

-------------------------------------
Reading input data for simulation 24.
-------------------------------------

	MIX 23 
		1001	0.192132	
	 SAVE SOLUTION	23	 
	 END
-----------------------------------------
Beginning of batch-reaction calculations.
-----------------------------------------

Reaction step 1.

Using mix 23.	

Mixture 23.	

	 1.921e-001 Solution 1001	intial solution mobile zone                            

-----------------------------Solution composition------------------------------

	Elements           Molality       Moles

	Pure water     

----------------------------Description of solution----------------------------

                                       pH  =   7.000      Charge balance
                                       pe  =  11.691      Adjusted to redox equilibrium
                        Activity of water  =   1.000
                           Ionic strength  =  1.001e-007
                       Mass of water (kg)  =  1.921e-001
                 Total alkalinity (eq/kg)  =  1.082e-010
                    Total carbon (mol/kg)  =  0.000e+000
                       Total CO2 (mol/kg)  =  0.000e+000
                      Temperature (deg C)  =  25.000
                  Electrical balance (eq)  = -2.079e-011
 Percent error, 100*(Cat-|An|)/(Cat+|An|)  =  -0.05
                               Iterations  =   7
                                  Total H  = 2.132904e+001
                                  Total O  = 1.066452e+001

----------------------------Distribution of species----------------------------

                                                   Log       Log         Log 
   Species                 Molality    Activity  Molality  Activity     Gamma

   OH-                   1.001e-007  1.001e-007    -6.999    -7.000    -0.000
   H+                    1.000e-007  1.000e-007    -7.000    -7.000    -0.000
   H2O                   5.551e+001  1.000e+000     1.744    -0.000     0.000
H(0)            0.000e+000
   H2                    0.000e+000  0.000e+000   -40.533   -40.533     0.000
O(0)            9.702e-012
   O2                    4.851e-012  4.851e-012   -11.314   -11.314     0.000

------------------------------Saturation indices-------------------------------

	Phase               SI log IAP  log KT

	H2(g)           -37.34    5.66   43.00  H2
	H2O(g)           -1.51   -0.00    1.51  H2O
	O2(g)            -8.42  -11.31   -2.89  O2

------------------
End of simulation.
------------------

-------------------------------------
Reading input data for simulation 25.
-------------------------------------

	MIX 24 
		1001	0.192132	
	 SAVE SOLUTION	24	 
	 END
-----------------------------------------
Beginning of batch-reaction calculations.
-----------------------------------------

Reaction step 1.

Using mix 24.	

Mixture 24.	

	 1.921e-001 Solution 1001	intial solution mobile zone                            

-----------------------------Solution composition------------------------------

	Elements           Molality       Moles

	Pure water     

----------------------------Description of solution----------------------------

                                       pH  =   7.000      Charge balance
                                       pe  =  11.691      Adjusted to redox equilibrium
                        Activity of water  =   1.000
                           Ionic strength  =  1.001e-007
                       Mass of water (kg)  =  1.921e-001
                 Total alkalinity (eq/kg)  =  1.082e-010
                    Total carbon (mol/kg)  =  0.000e+000
                       Total CO2 (mol/kg)  =  0.000e+000
                      Temperature (deg C)  =  25.000
                  Electrical balance (eq)  = -2.079e-011
 Percent error, 100*(Cat-|An|)/(Cat+|An|)  =  -0.05
                               Iterations  =   7
                                  Total H  = 2.132904e+001
                                  Total O  = 1.066452e+001

----------------------------Distribution of species----------------------------

                                                   Log       Log         Log 
   Species                 Molality    Activity  Molality  Activity     Gamma

   OH-                   1.001e-007  1.001e-007    -6.999    -7.000    -0.000
   H+                    1.000e-007  1.000e-007    -7.000    -7.000    -0.000
   H2O                   5.551e+001  1.000e+000     1.744    -0.000     0.000
H(0)            0.000e+000
   H2                    0.000e+000  0.000e+000   -40.533   -40.533     0.000
O(0)            9.702e-012
   O2                    4.851e-012  4.851e-012   -11.314   -11.314     0.000

------------------------------Saturation indices-------------------------------

	Phase               SI log IAP  log KT

	H2(g)           -37.34    5.66   43.00  H2
	H2O(g)           -1.51   -0.00    1.51  H2O
	O2(g)            -8.42  -11.31   -2.89  O2

------------------
End of simulation.
------------------

-------------------------------------
Reading input data for simulation 26.
-------------------------------------

	MIX 25 
		1001	0.192132	
	 SAVE SOLUTION	25	 
	 END
-----------------------------------------
Beginning of batch-reaction calculations.
-----------------------------------------

Reaction step 1.

Using mix 25.	

Mixture 25.	

	 1.921e-001 Solution 1001	intial solution mobile zone                            

-----------------------------Solution composition------------------------------

	Elements           Molality       Moles

	Pure water     

----------------------------Description of solution----------------------------

                                       pH  =   7.000      Charge balance
                                       pe  =  11.691      Adjusted to redox equilibrium
                        Activity of water  =   1.000
                           Ionic strength  =  1.001e-007
                       Mass of water (kg)  =  1.921e-001
                 Total alkalinity (eq/kg)  =  1.082e-010
                    Total carbon (mol/kg)  =  0.000e+000
                       Total CO2 (mol/kg)  =  0.000e+000
                      Temperature (deg C)  =  25.000
                  Electrical balance (eq)  = -2.079e-011
 Percent error, 100*(Cat-|An|)/(Cat+|An|)  =  -0.05
                               Iterations  =   7
                                  Total H  = 2.132904e+001
                                  Total O  = 1.066452e+001

----------------------------Distribution of species----------------------------

                                                   Log       Log         Log 
   Species                 Molality    Activity  Molality  Activity     Gamma

   OH-                   1.001e-007  1.001e-007    -6.999    -7.000    -0.000
   H+                    1.000e-007  1.000e-007    -7.000    -7.000    -0.000
   H2O                   5.551e+001  1.000e+000     1.744    -0.000     0.000
H(0)            0.000e+000
   H2                    0.000e+000  0.000e+000   -40.533   -40.533     0.000
O(0)            9.702e-012
   O2                    4.851e-012  4.851e-012   -11.314   -11.314     0.000

------------------------------Saturation indices-------------------------------

	Phase               SI log IAP  log KT

	H2(g)           -37.34    5.66   43.00  H2
	H2O(g)           -1.51   -0.00    1.51  H2O
	O2(g)            -8.42  -11.31   -2.89  O2

------------------
End of simulation.
------------------

-------------------------------------
Reading input data for simulation 27.
-------------------------------------

	MIX 26 
		1001	0.192132	
	 SAVE SOLUTION	26	 
	 END
-----------------------------------------
Beginning of batch-reaction calculations.
-----------------------------------------

Reaction step 1.

Using mix 26.	

Mixture 26.	

	 1.921e-001 Solution 1001	intial solution mobile zone                            

-----------------------------Solution composition------------------------------

	Elements           Molality       Moles

	Pure water     

----------------------------Description of solution----------------------------

                                       pH  =   7.000      Charge balance
                                       pe  =  11.691      Adjusted to redox equilibrium
                        Activity of water  =   1.000
                           Ionic strength  =  1.001e-007
                       Mass of water (kg)  =  1.921e-001
                 Total alkalinity (eq/kg)  =  1.082e-010
                    Total carbon (mol/kg)  =  0.000e+000
                       Total CO2 (mol/kg)  =  0.000e+000
                      Temperature (deg C)  =  25.000
                  Electrical balance (eq)  = -2.079e-011
 Percent error, 100*(Cat-|An|)/(Cat+|An|)  =  -0.05
                               Iterations  =   7
                                  Total H  = 2.132904e+001
                                  Total O  = 1.066452e+001

----------------------------Distribution of species----------------------------

                                                   Log       Log         Log 
   Species                 Molality    Activity  Molality  Activity     Gamma

   OH-                   1.001e-007  1.001e-007    -6.999    -7.000    -0.000
   H+                    1.000e-007  1.000e-007    -7.000    -7.000    -0.000
   H2O                   5.551e+001  1.000e+000     1.744    -0.000     0.000
H(0)            0.000e+000
   H2                    0.000e+000  0.000e+000   -40.533   -40.533     0.000
O(0)            9.702e-012
   O2                    4.851e-012  4.851e-012   -11.314   -11.314     0.000

------------------------------Saturation indices-------------------------------

	Phase               SI log IAP  log KT

	H2(g)           -37.34    5.66   43.00  H2
	H2O(g)           -1.51   -0.00    1.51  H2O
	O2(g)            -8.42  -11.31   -2.89  O2

------------------
End of simulation.
------------------

-------------------------------------
Reading input data for simulation 28.
-------------------------------------

	MIX 27 
		1001	0.192132	
	 SAVE SOLUTION	27	 
	 END
-----------------------------------------
Beginning of batch-reaction calculations.
-----------------------------------------

Reaction step 1.

Using mix 27.	

Mixture 27.	

	 1.921e-001 Solution 1001	intial solution mobile zone                            

-----------------------------Solution composition------------------------------

	Elements           Molality       Moles

	Pure water     

----------------------------Description of solution----------------------------

                                       pH  =   7.000      Charge balance
                                       pe  =  11.691      Adjusted to redox equilibrium
                        Activity of water  =   1.000
                           Ionic strength  =  1.001e-007
                       Mass of water (kg)  =  1.921e-001
                 Total alkalinity (eq/kg)  =  1.082e-010
                    Total carbon (mol/kg)  =  0.000e+000
                       Total CO2 (mol/kg)  =  0.000e+000
                      Temperature (deg C)  =  25.000
                  Electrical balance (eq)  = -2.079e-011
 Percent error, 100*(Cat-|An|)/(Cat+|An|)  =  -0.05
                               Iterations  =   7
                                  Total H  = 2.132904e+001
                                  Total O  = 1.066452e+001

----------------------------Distribution of species----------------------------

                                                   Log       Log         Log 
   Species                 Molality    Activity  Molality  Activity     Gamma

   OH-                   1.001e-007  1.001e-007    -6.999    -7.000    -0.000
[...]
H(0)            0.000e+000
   H2                    0.000e+000  0.000e+000   -40.000   -40.000     0.000
O(0)            8.340e-013
   O2                    4.170e-013  4.170e-013   -12.380   -12.380     0.000

------------------------------Saturation indices-------------------------------

	Phase               SI log IAP  log KT

	H2(g)           -36.81    6.19   43.00  H2
	H2O(g)           -1.51   -0.00    1.51  H2O
	O2(g)            -9.49  -12.38   -2.89  O2

------------------
End of simulation.
------------------

--------------------------------------
Reading input data for simulation 197.
--------------------------------------

	MIX 95 
		2001	0.050000	
	 SAVE SOLUTION	196	 
	 END
-----------------------------------------
Beginning of batch-reaction calculations.
-----------------------------------------

Reaction step 1.

Using mix 95.	

Mixture 95.	

	 5.000e-002 Solution 2001	initial solution immobile zone                         

-----------------------------Solution composition------------------------------

	Elements           Molality       Moles

	Pure water     

----------------------------Description of solution----------------------------

                                       pH  =   7.000      Charge balance
                                       pe  =  11.425      Adjusted to redox equilibrium
                        Activity of water  =   1.000
                           Ionic strength  =  1.001e-007
                       Mass of water (kg)  =  5.000e-002
                 Total alkalinity (eq/kg)  =  1.082e-010
                    Total carbon (mol/kg)  =  0.000e+000
                       Total CO2 (mol/kg)  =  0.000e+000
                      Temperature (deg C)  =  25.000
                  Electrical balance (eq)  = -5.411e-012
 Percent error, 100*(Cat-|An|)/(Cat+|An|)  =  -0.05
                               Iterations  =   6
                                  Total H  = 5.550622e+000
                                  Total O  = 2.775311e+000

----------------------------Distribution of species----------------------------

                                                   Log       Log         Log 
   Species                 Molality    Activity  Molality  Activity     Gamma

   OH-                   1.001e-007  1.001e-007    -6.999    -7.000    -0.000
   H+                    1.000e-007  1.000e-007    -7.000    -7.000    -0.000
   H2O                   5.551e+001  1.000e+000     1.744    -0.000     0.000
H(0)            0.000e+000
   H2                    0.000e+000  0.000e+000   -40.000   -40.000     0.000
O(0)            8.340e-013
   O2                    4.170e-013  4.170e-013   -12.380   -12.380     0.000

------------------------------Saturation indices-------------------------------

	Phase               SI log IAP  log KT

	H2(g)           -36.81    6.19   43.00  H2
	H2O(g)           -1.51   -0.00    1.51  H2O
	O2(g)            -9.49  -12.38   -2.89  O2

------------------
End of simulation.
------------------

--------------------------------------
Reading input data for simulation 198.
--------------------------------------

	MIX 96 
		2001	0.050000	
	 SAVE SOLUTION	197	 
	 END
-----------------------------------------
Beginning of batch-reaction calculations.
-----------------------------------------

Reaction step 1.

Using mix 96.	

Mixture 96.	

	 5.000e-002 Solution 2001	initial solution immobile zone                         

-----------------------------Solution composition------------------------------

	Elements           Molality       Moles

	Pure water     

----------------------------Description of solution----------------------------

                                       pH  =   7.000      Charge balance
                                       pe  =  11.425      Adjusted to redox equilibrium
                        Activity of water  =   1.000
                           Ionic strength  =  1.001e-007
                       Mass of water (kg)  =  5.000e-002
                 Total alkalinity (eq/kg)  =  1.082e-010
                    Total carbon (mol/kg)  =  0.000e+000
                       Total CO2 (mol/kg)  =  0.000e+000
                      Temperature (deg C)  =  25.000
                  Electrical balance (eq)  = -5.411e-012
 Percent error, 100*(Cat-|An|)/(Cat+|An|)  =  -0.05
                               Iterations  =   6
                                  Total H  = 5.550622e+000
                                  Total O  = 2.775311e+000

----------------------------Distribution of species----------------------------

                                                   Log       Log         Log 
   Species                 Molality    Activity  Molality  Activity     Gamma

   OH-                   1.001e-007  1.001e-007    -6.999    -7.000    -0.000
   H+                    1.000e-007  1.000e-007    -7.000    -7.000    -0.000
   H2O                   5.551e+001  1.000e+000     1.744    -0.000     0.000
H(0)            0.000e+000
   H2                    0.000e+000  0.000e+000   -40.000   -40.000     0.000
O(0)            8.340e-013
   O2                    4.170e-013  4.170e-013   -12.380   -12.380     0.000

------------------------------Saturation indices-------------------------------

	Phase               SI log IAP  log KT

	H2(g)           -36.81    6.19   43.00  H2
	H2O(g)           -1.51   -0.00    1.51  H2O
	O2(g)            -9.49  -12.38   -2.89  O2

------------------
End of simulation.
------------------

--------------------------------------
Reading input data for simulation 199.
--------------------------------------

	MIX 97 
		2001	0.050000	
	 SAVE SOLUTION	198	 
	 END
-----------------------------------------
Beginning of batch-reaction calculations.
-----------------------------------------

Reaction step 1.

Using mix 97.	

Mixture 97.	

	 5.000e-002 Solution 2001	initial solution immobile zone                         

-----------------------------Solution composition------------------------------

	Elements           Molality       Moles

	Pure water     

----------------------------Description of solution----------------------------

                                       pH  =   7.000      Charge balance
                                       pe  =  11.425      Adjusted to redox equilibrium
                        Activity of water  =   1.000
                           Ionic strength  =  1.001e-007
                       Mass of water (kg)  =  5.000e-002
                 Total alkalinity (eq/kg)  =  1.082e-010
                    Total carbon (mol/kg)  =  0.000e+000
                       Total CO2 (mol/kg)  =  0.000e+000
                      Temperature (deg C)  =  25.000
                  Electrical balance (eq)  = -5.411e-012
 Percent error, 100*(Cat-|An|)/(Cat+|An|)  =  -0.05
                               Iterations  =   6
                                  Total H  = 5.550622e+000
                                  Total O  = 2.775311e+000

----------------------------Distribution of species----------------------------

                                                   Log       Log         Log 
   Species                 Molality    Activity  Molality  Activity     Gamma

   OH-                   1.001e-007  1.001e-007    -6.999    -7.000    -0.000
   H+                    1.000e-007  1.000e-007    -7.000    -7.000    -0.000
   H2O                   5.551e+001  1.000e+000     1.744    -0.000     0.000
H(0)            0.000e+000
   H2                    0.000e+000  0.000e+000   -40.000   -40.000     0.000
O(0)            8.340e-013
   O2                    4.170e-013  4.170e-013   -12.380   -12.380     0.000

------------------------------Saturation indices-------------------------------

	Phase               SI log IAP  log KT

	H2(g)           -36.81    6.19   43.00  H2
	H2O(g)           -1.51   -0.00    1.51  H2O
	O2(g)            -9.49  -12.38   -2.89  O2

------------------
End of simulation.
------------------

--------------------------------------
Reading input data for simulation 200.
--------------------------------------

	MIX 98 
		2001	0.050000	
	 SAVE SOLUTION	199	 
	 END
-----------------------------------------
Beginning of batch-reaction calculations.
-----------------------------------------

Reaction step 1.

Using mix 98.	

Mixture 98.	

	 5.000e-002 Solution 2001	initial solution immobile zone                         

-----------------------------Solution composition------------------------------

	Elements           Molality       Moles

	Pure water     

----------------------------Description of solution----------------------------

                                       pH  =   7.000      Charge balance
                                       pe  =  11.425      Adjusted to redox equilibrium
                        Activity of water  =   1.000
                           Ionic strength  =  1.001e-007
                       Mass of water (kg)  =  5.000e-002
                 Total alkalinity (eq/kg)  =  1.082e-010
                    Total carbon (mol/kg)  =  0.000e+000
                       Total CO2 (mol/kg)  =  0.000e+000
                      Temperature (deg C)  =  25.000
                  Electrical balance (eq)  = -5.411e-012
 Percent error, 100*(Cat-|An|)/(Cat+|An|)  =  -0.05
                               Iterations  =   6
                                  Total H  = 5.550622e+000
                                  Total O  = 2.775311e+000

----------------------------Distribution of species----------------------------

                                                   Log       Log         Log 
   Species                 Molality    Activity  Molality  Activity     Gamma

   OH-                   1.001e-007  1.001e-007    -6.999    -7.000    -0.000
   H+                    1.000e-007  1.000e-007    -7.000    -7.000    -0.000
   H2O                   5.551e+001  1.000e+000     1.744    -0.000     0.000
H(0)            0.000e+000
   H2                    0.000e+000  0.000e+000   -40.000   -40.000     0.000
O(0)            8.340e-013
   O2                    4.170e-013  4.170e-013   -12.380   -12.380     0.000

------------------------------Saturation indices-------------------------------

	Phase               SI log IAP  log KT

	H2(g)           -36.81    6.19   43.00  H2
	H2O(g)           -1.51   -0.00    1.51  H2O
	O2(g)            -9.49  -12.38   -2.89  O2

------------------
End of simulation.
------------------

--------------------------------------
Reading input data for simulation 201.
--------------------------------------

	MIX 99 
		2001	0.050000	
	 SAVE SOLUTION	200	 
	 END
-----------------------------------------
Beginning of batch-reaction calculations.
-----------------------------------------

Reaction step 1.

Using mix 99.	

Mixture 99.	

	 5.000e-002 Solution 2001	initial solution immobile zone                         

-----------------------------Solution composition------------------------------

	Elements           Molality       Moles

	Pure water     

----------------------------Description of solution----------------------------

                                       pH  =   7.000      Charge balance
                                       pe  =  11.425      Adjusted to redox equilibrium
                        Activity of water  =   1.000
                           Ionic strength  =  1.001e-007
                       Mass of water (kg)  =  5.000e-002
                 Total alkalinity (eq/kg)  =  1.082e-010
                    Total carbon (mol/kg)  =  0.000e+000
                       Total CO2 (mol/kg)  =  0.000e+000
                      Temperature (deg C)  =  25.000
                  Electrical balance (eq)  = -5.411e-012
 Percent error, 100*(Cat-|An|)/(Cat+|An|)  =  -0.05
                               Iterations  =   6
                                  Total H  = 5.550622e+000
                                  Total O  = 2.775311e+000

----------------------------Distribution of species----------------------------

                                                   Log       Log         Log 
   Species                 Molality    Activity  Molality  Activity     Gamma

   OH-                   1.001e-007  1.001e-007    -6.999    -7.000    -0.000
   H+                    1.000e-007  1.000e-007    -7.000    -7.000    -0.000
   H2O                   5.551e+001  1.000e+000     1.744    -0.000     0.000
H(0)            0.000e+000
   H2                    0.000e+000  0.000e+000   -40.000   -40.000     0.000
O(0)            8.340e-013
   O2                    4.170e-013  4.170e-013   -12.380   -12.380     0.000

------------------------------Saturation indices-------------------------------

	Phase               SI log IAP  log KT

	H2(g)           -36.81    6.19   43.00  H2
	H2O(g)           -1.51   -0.00    1.51  H2O
	O2(g)            -9.49  -12.38   -2.89  O2

------------------
End of simulation.
------------------

--------------------------------------
Reading input data for simulation 202.
--------------------------------------

	MIX 100 
		2001	0.050000	
	 SAVE SOLUTION	201	 
	 END
-----------------------------------------
Beginning of batch-reaction calculations.
-----------------------------------------

Reaction step 1.

Using mix 100.	

Mixture 100.	

	 5.000e-002 Solution 2001	initial solution immobile zone                         

-----------------------------Solution composition------------------------------

	Elements           Molality       Moles

	Pure water     

----------------------------Description of solution----------------------------

                                       pH  =   7.000      Charge balance
                                       pe  =  11.425      Adjusted to redox equilibrium
                        Activity of water  =   1.000
                           Ionic strength  =  1.001e-007
                       Mass of water (kg)  =  5.000e-002
                 Total alkalinity (eq/kg)  =  1.082e-010
                    Total carbon (mol/kg)  =  0.000e+000
                       Total CO2 (mol/kg)  =  0.000e+000
                      Temperature (deg C)  =  25.000
                  Electrical balance (eq)  = -5.411e-012
 Percent error, 100*(Cat-|An|)/(Cat+|An|)  =  -0.05
                               Iterations  =   6
                                  Total H  = 5.550622e+000
                                  Total O  = 2.775311e+000

----------------------------Distribution of species----------------------------

                                                   Log       Log         Log 
   Species                 Molality    Activity  Molality  Activity     Gamma

   OH-                   1.001e-007  1.001e-007    -6.999    -7.000    -0.000
   H+                    1.000e-007  1.000e-007    -7.000    -7.000    -0.000
   H2O                   5.551e+001  1.000e+000     1.744    -0.000     0.000
H(0)            0.000e+000
   H2                    0.000e+000  0.000e+000   -40.000   -40.000     0.000
O(0)            8.340e-013
   O2                    4.170e-013  4.170e-013   -12.380   -12.380     0.000

------------------------------Saturation indices-------------------------------

	Phase               SI log IAP  log KT

	H2(g)           -36.81    6.19   43.00  H2
	H2O(g)           -1.51   -0.00    1.51  H2O
	O2(g)            -9.49  -12.38   -2.89  O2

------------------
End of simulation.
------------------

--------------------------------------
Reading input data for simulation 203.
--------------------------------------

	MIX 101 
		2001	0.050000	
	 SAVE SOLUTION	202	 
	 END
-----------------------------------------
Beginning of batch-reaction calculations.
-----------------------------------------

Reaction step 1.

Using mix 101.	

Mixture 101.	

	 5.000e-002 Solution 2001	initial solution immobile zone                         

-----------------------------Solution composition------------------------------

	Elements           Molality       Moles

	Pure water     

----------------------------Description of solution----------------------------

                                       pH  =   7.000      Charge balance
                                       pe  =  11.425      Adjusted to redox equilibrium
                        Activity of water  =   1.000
                           Ionic strength  =  1.001e-007
                       Mass of water (kg)  =  5.000e-002
                 Total alkalinity (eq/kg)  =  1.082e-010
                    Total carbon (mol/kg)  =  0.000e+000
                       Total CO2 (mol/kg)  =  0.000e+000
                      Temperature (deg C)  =  25.000
                  Electrical balance (eq)  = -5.411e-012
 Percent error, 100*(Cat-|An|)/(Cat+|An|)  =  -0.05
                               Iterations  =   6
                                  Total H  = 5.550622e+000
                                  Total O  = 2.775311e+000

----------------------------Distribution of species----------------------------

                                                   Log       Log         Log 
   Species                 Molality    Activity  Molality  Activity     Gamma

   OH-                   1.001e-007  1.001e-007    -6.999    -7.000    -0.000
   H+                    1.000e-007  1.000e-007    -7.000    -7.000    -0.000
   H2O                   5.551e+001  1.000e+000     1.744    -0.000     0.000
H(0)            0.000e+000
   H2                    0.000e+000  0.000e+000   -40.000   -40.000     0.000
O(0)            8.340e-013
   O2                    4.170e-013  4.170e-013   -12.380   -12.380     0.000

------------------------------Saturation indices-------------------------------

	Phase               SI log IAP  log KT

	H2(g)           -36.81    6.19   43.00  H2
	H2O(g)           -1.51   -0.00    1.51  H2O
	O2(g)            -9.49  -12.38   -2.89  O2

------------------
End of simulation.
------------------

--------------------------------------
Reading input data for simulation 204.
--------------------------------------

	PRINT
	 reset false
	 warnings 500
	TRANSPORT
	 cells 101
	 gnuplot true


--------------------------------
Printing G N U P L O T templates
--------------------------------

  Printing G N U P L O T template file: C:\ussl\HYDRUS-1D v4\Examples\HP1\TRANSCL\ts_pH_m.plt
  Printing G N U P L O T template file: C:\ussl\HYDRUS-1D v4\Examples\HP1\TRANSCL\pd_pH_m.plt
  Printing G N U P L O T template file: C:\ussl\HYDRUS-1D v4\Examples\HP1\TRANSCL\ts_pH_im.plt
  Printing G N U P L O T template file: C:\ussl\HYDRUS-1D v4\Examples\HP1\TRANSCL\pd_pH_im.plt
  Printing G N U P L O T template file: C:\ussl\HYDRUS-1D v4\Examples\HP1\TRANSCL\ts_pe_m.plt
  Printing G N U P L O T template file: C:\ussl\HYDRUS-1D v4\Examples\HP1\TRANSCL\pd_pe_m.plt
  Printing G N U P L O T template file: C:\ussl\HYDRUS-1D v4\Examples\HP1\TRANSCL\ts_pe_im.plt
  Printing G N U P L O T template file: C:\ussl\HYDRUS-1D v4\Examples\HP1\TRANSCL\pd_pe_im.plt
  Printing G N U P L O T template file: C:\ussl\HYDRUS-1D v4\Examples\HP1\TRANSCL\ts_tot_Cl_m.plt
  Printing G N U P L O T template file: C:\ussl\HYDRUS-1D v4\Examples\HP1\TRANSCL\pd_tot_Cl_m.plt
  Printing G N U P L O T template file: C:\ussl\HYDRUS-1D v4\Examples\HP1\TRANSCL\ts_tot_Cl_im.plt
  Printing G N U P L O T template file: C:\ussl\HYDRUS-1D v4\Examples\HP1\TRANSCL\pd_tot_Cl_im.plt


--------------------------------
STARTING TRANSPORT CALCULATIONS
--------------------------------

