-----------------------------
VERSION AND FILE INFORMATION.
-----------------------------

HP1-2.1.002 based on PHREEQC-2.15.0-2697 and HYDRUS1D-4.0 (released on November 02, 2009).

PROJECT FOLDER: C:\ussl\HYDRUS-1D v4\Examples\HP1\MCATEXCH
    INPUT FILE: C:\ussl\HYDRUS-1D v4\Examples\HP1\MCATEXCH\phreeqc.in
   OUTPUT FILE: C:\ussl\HYDRUS-1D v4\Examples\HP1\MCATEXCH\phreeqc.out
 DATABASE FILE: C:\Program Files\PC-Progress\HYDRUS-1D 4.xx\HP1 Databases\mcatexch.dat

------------------
Reading data base.
------------------

	SOLUTION_MASTER_SPECIES
	SOLUTION_SPECIES
	PHASES 
	EXCHANGE_MASTER_SPECIES
	EXCHANGE_SPECIES
------------------------------------
Reading input data for simulation 1.
------------------------------------

	TITLE : Heavy metal transport in a medium with a pH-dependent cation exchange complex
	SOLUTION_MASTER_SPECIES
	SOLUTION_SPECIES
	PHASES
	EXCHANGE_MASTER_SPECIES
	EXCHANGE_SPECIES
	SURFACE_MASTER_SPECIES
	SURFACE_SPECIES
	RATES
	SELECTED_OUTPUT
	 file MCATEXCH.hse
	 reset false 
	 solution true 
	 distance true 
	 time true 
	 ph true 
	 pe true 
	User_punch
	headings Cd@µmol_kg_water_-1 1_-_Hsite_div_total_CEC Cd-site_div_total_CEC 2timesCD-site
	start
	 10 punch tot("Cd") * 1E6
	 21 Hsite = mol("HXa") + mol("HXb") + mol("HXc") + mol("HXd") + mol("HXe") + mol("HXf")
	 22 Nasite = mol("NaXa") + mol("NaXb") + mol("NaXc") + mol("NaXd") + mol("NaXe") + mol("NaXf")
	 23 Ksite = mol("KXa") + mol("KXb") + mol("KXc") + mol("KXd") + mol("KXe") + mol("KXf")
	 24 Casite = mol("CaXa2") + mol("CaXb2") + mol("CaXc2") + mol("CaXd2") + mol("CaXe2") + mol("CaXf2")
	 25 Mgsite = mol("MgXa2") + mol("MgXb2") + mol("MgXc2") + mol("MgXd2") + mol("MgXe2") + mol("MgXf2")
	 26 Cdsite = mol("CdXa2") + mol("CdXb2") + mol("CdXc2") + mol("CdXd2") + mol("CdXe2") + mol("CdXf2")
	 27 Pbsite = mol("PbXa2") + mol("PbXb2") + mol("PbXc2") + mol("PbXd2") + mol("PbXe2") + mol("PbXf2")
	 28 Znsite = mol("ZnXa2") + mol("ZnXb2") + mol("ZnXc2") + mol("ZnXd2") + mol("ZnXe2") + mol("ZnXf2")
	 29 totsite=Hsite+Nasite+Ksite+Casite+Mgsite+Cdsite+Pbsite+Znsite
	 30 punch (1-Hsite)/totsite
	 35 punch Cdsite/totsite 2*Cdsite/totsite
	end
	solution 1001 initial condition 0-28
	temperature 25
	units umoles/kgw
	pH 8.5 
	K               120
	Na             401.9 charge
	Ca             98
	Mg             5 
	Cd 0.8
	Pb 2.5
	Zn 50
	Br 780 
	solution 1002 initial condition 28-100
	units umoles/kgw
	pH 8.5
	K               120
	Na             450 charge
	Ca             98
	Mg             5
	Br 780 
	solution 3001 boundary solution
	units umoles/kgw
	pH 3.5
	Na 127 charge
	K 120
	Ca 98
	Mg 5
	Br 780
	END
-----
TITLE
-----

 : Heavy metal transport in a medium with a pH-dependent cation exchange complex

-------------------------------------------
Beginning of initial solution calculations.
-------------------------------------------

Initial solution 1001.	initial condition 0-28

-----------------------------Solution composition------------------------------

	Elements           Molality       Moles

	Br               7.800e-004  7.800e-004
	Ca               9.800e-005  9.800e-005
	Cd               8.000e-007  8.000e-007
	K                1.200e-004  1.200e-004
	Mg               5.000e-006  5.000e-006
	Na               4.052e-004  4.052e-004  Charge balance
	Pb               2.500e-006  2.500e-006
	Zn               5.000e-005  5.000e-005

----------------------------Description of solution----------------------------

                                       pH  =   8.500    
                                       pe  =   4.000    
                        Activity of water  =   1.000
                           Ionic strength  =  9.081e-004
                       Mass of water (kg)  =  1.000e+000
                 Total alkalinity (eq/kg)  =  5.783e-005
                    Total carbon (mol/kg)  =  0.000e+000
                       Total CO2 (mol/kg)  =  0.000e+000
                      Temperature (deg C)  =  25.000
                  Electrical balance (eq)  =  2.706e-012
 Percent error, 100*(Cat-|An|)/(Cat+|An|)  =   0.00
                               Iterations  =   8
                                  Total H  = 1.110125e+002
                                  Total O  = 5.550627e+001

----------------------------Distribution of species----------------------------

                                                   Log       Log         Log 
   Species                 Molality    Activity  Molality  Activity     Gamma

   OH-                   3.272e-006  3.162e-006    -5.485    -5.500    -0.015
   H+                    3.266e-009  3.162e-009    -8.486    -8.500    -0.014
   H2O                   5.551e+001  1.000e+000     1.744    -0.000     0.000
Br              7.800e-004
   Br-                   7.800e-004  7.537e-004    -3.108    -3.123    -0.015
Ca              9.800e-005
   Ca+2                  9.800e-005  8.576e-005    -4.009    -4.067    -0.058
   CaOH+                 4.656e-009  4.501e-009    -8.332    -8.347    -0.015
Cd              8.000e-007
   Cd+2                  7.811e-007  6.827e-007    -6.107    -6.166    -0.058
   CdOH+                 1.858e-008  1.796e-008    -7.731    -7.746    -0.015
   Cd(OH)2               3.050e-010  3.050e-010    -9.516    -9.516     0.000
   Cd(OH)3-              1.119e-014  1.082e-014   -13.951   -13.966    -0.015
   Cd(OH)4-2             3.493e-020  3.049e-020   -19.457   -19.516    -0.059
H(0)            1.416e-028
   H2                    7.078e-029  7.079e-029   -28.150   -28.150     0.000
K               1.200e-004
   K+                    1.200e-004  1.160e-004    -3.921    -3.936    -0.015
   KOH                   1.271e-010  1.271e-010    -9.896    -9.896     0.000
Mg              5.000e-006
   Mg+2                  4.995e-006  4.382e-006    -5.301    -5.358    -0.057
   MgOH+                 5.205e-009  5.031e-009    -8.284    -8.298    -0.015
Na              4.052e-004
   Na+                   4.052e-004  3.917e-004    -3.392    -3.407    -0.015
   NaOH                  8.184e-010  8.184e-010    -9.087    -9.087     0.000
O(0)            1.663e-036
   O2                    8.315e-037  8.317e-037   -36.080   -36.080     0.000
Pb              2.500e-006
   PbOH+                 1.925e-006  1.861e-006    -5.716    -5.730    -0.015
   Pb+2                  3.455e-007  3.018e-007    -6.462    -6.520    -0.059
   Pb(OH)2               2.289e-007  2.289e-007    -6.640    -6.640     0.000
   Pb(OH)3-              8.597e-010  8.311e-010    -9.066    -9.080    -0.015
   Pb(OH)4-2             6.897e-013  6.020e-013   -12.161   -12.220    -0.059
Zn              5.000e-005
   Zn(OH)2               2.279e-005  2.279e-005    -4.642    -4.642     0.000
   Zn+2                  2.069e-005  1.811e-005    -4.684    -4.742    -0.058
   ZnOH+                 6.494e-006  6.278e-006    -5.187    -5.202    -0.015
   Zn(OH)3-              2.358e-008  2.279e-008    -7.627    -7.642    -0.015
   Zn(OH)4-2             1.309e-012  1.142e-012   -11.883   -11.942    -0.059

------------------------------Saturation indices-------------------------------

	Phase               SI log IAP  log KT

	H2(g)           -25.00  -28.15   -3.15  H2
	O2(g)           -33.12  -36.08   -2.96  O2

Initial solution 1002.	initial condition 28-100

-----------------------------Solution composition------------------------------

	Elements           Molality       Moles

	Br               7.800e-004  7.800e-004
	Ca               9.800e-005  9.800e-005
	K                1.200e-004  1.200e-004
	Mg               5.000e-006  5.000e-006
	Na               4.573e-004  4.573e-004  Charge balance

----------------------------Description of solution----------------------------

                                       pH  =   8.500    
                                       pe  =   4.000    
                        Activity of water  =   1.000
                           Ionic strength  =  8.863e-004
                       Mass of water (kg)  =  1.000e+000
                 Total alkalinity (eq/kg)  =  3.278e-006
                    Total carbon (mol/kg)  =  0.000e+000
                       Total CO2 (mol/kg)  =  0.000e+000
                      Temperature (deg C)  =  25.000
                  Electrical balance (eq)  =  2.715e-012
 Percent error, 100*(Cat-|An|)/(Cat+|An|)  =   0.00
                               Iterations  =   8
                                  Total H  = 1.110124e+002
                                  Total O  = 5.550622e+001

----------------------------Distribution of species----------------------------

                                                   Log       Log         Log 
   Species                 Molality    Activity  Molality  Activity     Gamma

   OH-                   3.270e-006  3.162e-006    -5.485    -5.500    -0.015
   H+                    3.265e-009  3.162e-009    -8.486    -8.500    -0.014
   H2O                   5.551e+001  1.000e+000     1.744    -0.000     0.000
Br              7.800e-004
   Br-                   7.800e-004  7.541e-004    -3.108    -3.123    -0.015
Ca              9.800e-005
   Ca+2                  9.800e-005  8.589e-005    -4.009    -4.066    -0.057
   CaOH+                 4.661e-009  4.508e-009    -8.332    -8.346    -0.015
H(0)            1.416e-028
   H2                    7.078e-029  7.079e-029   -28.150   -28.150     0.000
K               1.200e-004
   K+                    1.200e-004  1.160e-004    -3.921    -3.936    -0.015
   KOH                   1.272e-010  1.272e-010    -9.896    -9.896     0.000
Mg              5.000e-006
   Mg+2                  4.995e-006  4.388e-006    -5.301    -5.358    -0.056
   MgOH+                 5.210e-009  5.038e-009    -8.283    -8.298    -0.015
Na              4.573e-004
   Na+                   4.573e-004  4.422e-004    -3.340    -3.354    -0.015
   NaOH                  9.239e-010  9.239e-010    -9.034    -9.034     0.000
O(0)            1.663e-036
   O2                    8.316e-037  8.317e-037   -36.080   -36.080     0.000

------------------------------Saturation indices-------------------------------

	Phase               SI log IAP  log KT

	H2(g)           -25.00  -28.15   -3.15  H2
	O2(g)           -33.12  -36.08   -2.96  O2

Initial solution 3001.	boundary solution

-----------------------------Solution composition------------------------------

	Elements           Molality       Moles

	Br               7.800e-004  7.800e-004
	Ca               9.800e-005  9.800e-005
	K                1.200e-004  1.200e-004
	Mg               5.000e-006  5.000e-006
	Na               1.275e-004  1.275e-004  Charge balance

----------------------------Description of solution----------------------------

                                       pH  =   3.500    
                                       pe  =   4.000    
                        Activity of water  =   1.000
                           Ionic strength  =  8.830e-004
                       Mass of water (kg)  =  1.000e+000
                 Total alkalinity (eq/kg)  = -3.265e-004
                    Total carbon (mol/kg)  =  0.000e+000
                       Total CO2 (mol/kg)  =  0.000e+000
                      Temperature (deg C)  =  25.000
                  Electrical balance (eq)  =  8.980e-013
 Percent error, 100*(Cat-|An|)/(Cat+|An|)  =   0.00
                               Iterations  =   8
                                  Total H  = 1.110128e+002
                                  Total O  = 5.550622e+001

----------------------------Distribution of species----------------------------

                                                   Log       Log         Log 
   Species                 Molality    Activity  Molality  Activity     Gamma

   H+                    3.265e-004  3.162e-004    -3.486    -3.500    -0.014
   OH-                   3.270e-011  3.162e-011   -10.485   -10.500    -0.015
   H2O                   5.551e+001  1.000e+000     1.744    -0.000     0.000
Br              7.800e-004
   Br-                   7.800e-004  7.541e-004    -3.108    -3.123    -0.015
Ca              9.800e-005
   Ca+2                  9.800e-005  8.592e-005    -4.009    -4.066    -0.057
   CaOH+                 4.662e-014  4.509e-014   -13.331   -13.346    -0.015
H(0)            1.416e-018
   H2                    7.078e-019  7.079e-019   -18.150   -18.150     0.000
K               1.200e-004
   K+                    1.200e-004  1.160e-004    -3.921    -3.935    -0.015
   KOH                   1.272e-015  1.272e-015   -14.895   -14.895     0.000
Mg              5.000e-006
   Mg+2                  5.000e-006  4.394e-006    -5.301    -5.357    -0.056
   MgOH+                 5.216e-014  5.045e-014   -13.283   -13.297    -0.015
Na              1.275e-004
   Na+                   1.275e-004  1.233e-004    -3.894    -3.909    -0.015
   NaOH                  2.576e-015  2.576e-015   -14.589   -14.589     0.000
O(0)            0.000e+000
   O2                    0.000e+000  0.000e+000   -56.080   -56.080     0.000

------------------------------Saturation indices-------------------------------

	Phase               SI log IAP  log KT

	H2(g)           -15.00  -18.15   -3.15  H2
	O2(g)           -53.12  -56.08   -2.96  O2

------------------
End of simulation.
------------------

------------------------------------
Reading input data for simulation 2.
------------------------------------

	MIX 1 
		1001	0.336585	
	 SAVE SOLUTION	1	 
	 END
-----------------------------------------
Beginning of batch-reaction calculations.
-----------------------------------------

Reaction step 1.

Using mix 1.	

Mixture 1.	

	 3.366e-001 Solution 1001	initial condition 0-28                                 

-----------------------------Solution composition------------------------------

	Elements           Molality       Moles

	Br               7.800e-004  2.625e-004
	Ca               9.800e-005  3.299e-005
	Cd               8.000e-007  2.693e-007
	K                1.200e-004  4.039e-005
	Mg               5.000e-006  1.683e-006
	Na               4.052e-004  1.364e-004
	Pb               2.500e-006  8.415e-007
	Zn               5.000e-005  1.683e-005

----------------------------Description of solution----------------------------

                                       pH  =   8.500      Charge balance
                                       pe  =   4.000      Adjusted to redox equilibrium
                        Activity of water  =   1.000
                           Ionic strength  =  9.081e-004
                       Mass of water (kg)  =  3.366e-001
                 Total alkalinity (eq/kg)  =  5.783e-005
                    Total carbon (mol/kg)  =  0.000e+000
                       Total CO2 (mol/kg)  =  0.000e+000
                      Temperature (deg C)  =  25.000
                  Electrical balance (eq)  =  9.107e-013
 Percent error, 100*(Cat-|An|)/(Cat+|An|)  =   0.00
                               Iterations  =   0
                                  Total H  = 3.736514e+001
                                  Total O  = 1.868258e+001

----------------------------Distribution of species----------------------------

                                                   Log       Log         Log 
   Species                 Molality    Activity  Molality  Activity     Gamma

   OH-                   3.272e-006  3.162e-006    -5.485    -5.500    -0.015
   H+                    3.266e-009  3.162e-009    -8.486    -8.500    -0.014
   H2O                   5.551e+001  1.000e+000     1.744    -0.000     0.000
Br              7.800e-004
   Br-                   7.800e-004  7.537e-004    -3.108    -3.123    -0.015
Ca              9.800e-005
   Ca+2                  9.800e-005  8.576e-005    -4.009    -4.067    -0.058
   CaOH+                 4.656e-009  4.501e-009    -8.332    -8.347    -0.015
Cd              8.000e-007
   Cd+2                  7.811e-007  6.827e-007    -6.107    -6.166    -0.058
   CdOH+                 1.858e-008  1.796e-008    -7.731    -7.746    -0.015
   Cd(OH)2               3.050e-010  3.050e-010    -9.516    -9.516     0.000
   Cd(OH)3-              1.119e-014  1.082e-014   -13.951   -13.966    -0.015
   Cd(OH)4-2             3.493e-020  3.049e-020   -19.457   -19.516    -0.059
H(0)            1.416e-028
   H2                    7.078e-029  7.079e-029   -28.150   -28.150     0.000
K               1.200e-004
   K+                    1.200e-004  1.160e-004    -3.921    -3.936    -0.015
   KOH                   1.271e-010  1.271e-010    -9.896    -9.896     0.000
Mg              5.000e-006
   Mg+2                  4.995e-006  4.382e-006    -5.301    -5.358    -0.057
   MgOH+                 5.205e-009  5.031e-009    -8.284    -8.298    -0.015
Na              4.052e-004
   Na+                   4.052e-004  3.917e-004    -3.392    -3.407    -0.015
   NaOH                  8.184e-010  8.184e-010    -9.087    -9.087     0.000
O(0)            1.663e-036
   O2                    8.315e-037  8.317e-037   -36.080   -36.080     0.000
Pb              2.500e-006
   PbOH+                 1.925e-006  1.861e-006    -5.716    -5.730    -0.015
   Pb+2                  3.455e-007  3.018e-007    -6.462    -6.520    -0.059
   Pb(OH)2               2.289e-007  2.289e-007    -6.640    -6.640     0.000
   Pb(OH)3-              8.597e-010  8.311e-010    -9.066    -9.080    -0.015
   Pb(OH)4-2             6.897e-013  6.020e-013   -12.161   -12.220    -0.059
Zn              5.000e-005
   Zn(OH)2               2.279e-005  2.279e-005    -4.642    -4.642     0.000
   Zn+2                  2.069e-005  1.811e-005    -4.684    -4.742    -0.058
   ZnOH+                 6.494e-006  6.278e-006    -5.187    -5.202    -0.015
   Zn(OH)3-              2.358e-008  2.279e-008    -7.627    -7.642    -0.015
   Zn(OH)4-2             1.309e-012  1.142e-012   -11.883   -11.942    -0.059

------------------------------Saturation indices-------------------------------

	Phase               SI log IAP  log KT

	H2(g)           -25.00  -28.15   -3.15  H2
	O2(g)           -33.12  -36.08   -2.96  O2

------------------
End of simulation.
------------------

------------------------------------
Reading input data for simulation 3.
------------------------------------

	MIX 2 
		1001	0.334585	
	 SAVE SOLUTION	2	 
	 END
-----------------------------------------
Beginning of batch-reaction calculations.
-----------------------------------------

Reaction step 1.

Using mix 2.	

Mixture 2.	

	 3.346e-001 Solution 1001	initial condition 0-28                                 

-----------------------------Solution composition------------------------------

	Elements           Molality       Moles

	Br               7.800e-004  2.610e-004
	Ca               9.800e-005  3.279e-005
	Cd               8.000e-007  2.677e-007
	K                1.200e-004  4.015e-005
	Mg               5.000e-006  1.673e-006
	Na               4.052e-004  1.356e-004
	Pb               2.500e-006  8.365e-007
	Zn               5.000e-005  1.673e-005

----------------------------Description of solution----------------------------

                                       pH  =   8.500      Charge balance
                                       pe  =   4.000      Adjusted to redox equilibrium
                        Activity of water  =   1.000
                           Ionic strength  =  9.081e-004
                       Mass of water (kg)  =  3.346e-001
                 Total alkalinity (eq/kg)  =  5.783e-005
                    Total carbon (mol/kg)  =  0.000e+000
                       Total CO2 (mol/kg)  =  0.000e+000
                      Temperature (deg C)  =  25.000
                  Electrical balance (eq)  =  9.053e-013
 Percent error, 100*(Cat-|An|)/(Cat+|An|)  =   0.00
                               Iterations  =   0
                                  Total H  = 3.714311e+001
                                  Total O  = 1.857157e+001

----------------------------Distribution of species----------------------------

                                                   Log       Log         Log 
   Species                 Molality    Activity  Molality  Activity     Gamma

   OH-                   3.272e-006  3.162e-006    -5.485    -5.500    -0.015
   H+                    3.266e-009  3.162e-009    -8.486    -8.500    -0.014
   H2O                   5.551e+001  1.000e+000     1.744    -0.000     0.000
Br              7.800e-004
   Br-                   7.800e-004  7.537e-004    -3.108    -3.123    -0.015
Ca              9.800e-005
   Ca+2                  9.800e-005  8.576e-005    -4.009    -4.067    -0.058
   CaOH+                 4.656e-009  4.501e-009    -8.332    -8.347    -0.015
Cd              8.000e-007
   Cd+2                  7.811e-007  6.827e-007    -6.107    -6.166    -0.058
   CdOH+                 1.858e-008  1.796e-008    -7.731    -7.746    -0.015
   Cd(OH)2               3.050e-010  3.050e-010    -9.516    -9.516     0.000
   Cd(OH)3-              1.119e-014  1.082e-014   -13.951   -13.966    -0.015
   Cd(OH)4-2             3.493e-020  3.049e-020   -19.457   -19.516    -0.059
H(0)            1.416e-028
   H2                    7.078e-029  7.079e-029   -28.150   -28.150     0.000
K               1.200e-004
   K+                    1.200e-004  1.160e-004    -3.921    -3.936    -0.015
   KOH                   1.271e-010  1.271e-010    -9.896    -9.896     0.000
Mg              5.000e-006
   Mg+2                  4.995e-006  4.382e-006    -5.301    -5.358    -0.057
   MgOH+                 5.205e-009  5.031e-009    -8.284    -8.298    -0.015
Na              4.052e-004
   Na+                   4.052e-004  3.917e-004    -3.392    -3.407    -0.015
   NaOH                  8.184e-010  8.184e-010    -9.087    -9.087     0.000
O(0)            1.663e-036
   O2                    8.315e-037  8.317e-037   -36.080   -36.080     0.000
Pb              2.500e-006
   PbOH+                 1.925e-006  1.861e-006    -5.716    -5.730    -0.015
   Pb+2                  3.455e-007  3.018e-007    -6.462    -6.520    -0.059
   Pb(OH)2               2.289e-007  2.289e-007    -6.640    -6.640     0.000
   Pb(OH)3-              8.597e-010  8.311e-010    -9.066    -9.080    -0.015
   Pb(OH)4-2             6.897e-013  6.020e-013   -12.161   -12.220    -0.059
Zn              5.000e-005
   Zn(OH)2               2.279e-005  2.279e-005    -4.642    -4.642     0.000
   Zn+2                  2.069e-005  1.811e-005    -4.684    -4.742    -0.058
   ZnOH+                 6.494e-006  6.278e-006    -5.187    -5.202    -0.015
   Zn(OH)3-              2.358e-008  2.279e-008    -7.627    -7.642    -0.015
   Zn(OH)4-2             1.309e-012  1.142e-012   -11.883   -11.942    -0.059

------------------------------Saturation indices-------------------------------

	Phase               SI log IAP  log KT

	H2(g)           -25.00  -28.15   -3.15  H2
	O2(g)           -33.12  -36.08   -2.96  O2

------------------
End of simulation.
------------------

------------------------------------
Reading input data for simulation 4.
------------------------------------

	MIX 3 
		1001	0.334585	
	 SAVE SOLUTION	3	 
	 END
-----------------------------------------
Beginning of batch-reaction calculations.
-----------------------------------------

Reaction step 1.

Using mix 3.	

Mixture 3.	

	 3.346e-001 Solution 1001	initial condition 0-28                                 

-----------------------------Solution composition------------------------------

	Elements           Molality       Moles

	Br               7.800e-004  2.610e-004
	Ca               9.800e-005  3.279e-005
	Cd               8.000e-007  2.677e-007
	K                1.200e-004  4.015e-005
	Mg               5.000e-006  1.673e-006
	Na               4.052e-004  1.356e-004
	Pb               2.500e-006  8.365e-007
	Zn               5.000e-005  1.673e-005

----------------------------Description of solution----------------------------

                                       pH  =   8.500      Charge balance
                                       pe  =   4.000      Adjusted to redox equilibrium
                        Activity of water  =   1.000
                           Ionic strength  =  9.081e-004
                       Mass of water (kg)  =  3.346e-001
                 Total alkalinity (eq/kg)  =  5.783e-005
                    Total carbon (mol/kg)  =  0.000e+000
                       Total CO2 (mol/kg)  =  0.000e+000
                      Temperature (deg C)  =  25.000
                  Electrical balance (eq)  =  9.053e-013
 Percent error, 100*(Cat-|An|)/(Cat+|An|)  =   0.00
                               Iterations  =   0
                                  Total H  = 3.714311e+001
                                  Total O  = 1.857157e+001

----------------------------Distribution of species----------------------------

                                                   Log       Log         Log 
   Species                 Molality    Activity  Molality  Activity     Gamma

   OH-                   3.272e-006  3.162e-006    -5.485    -5.500    -0.015
   H+                    3.266e-009  3.162e-009    -8.486    -8.500    -0.014
   H2O                   5.551e+001  1.000e+000     1.744    -0.000     0.000
Br              7.800e-004
   Br-                   7.800e-004  7.537e-004    -3.108    -3.123    -0.015
Ca              9.800e-005
   Ca+2                  9.800e-005  8.576e-005    -4.009    -4.067    -0.058
   CaOH+                 4.656e-009  4.501e-009    -8.332    -8.347    -0.015
Cd              8.000e-007
   Cd+2                  7.811e-007  6.827e-007    -6.107    -6.166    -0.058
   CdOH+                 1.858e-008  1.796e-008    -7.731    -7.746    -0.015
   Cd(OH)2               3.050e-010  3.050e-010    -9.516    -9.516     0.000
   Cd(OH)3-              1.119e-014  1.082e-014   -13.951   -13.966    -0.015
   Cd(OH)4-2             3.493e-020  3.049e-020   -19.457   -19.516    -0.059
H(0)            1.416e-028
   H2                    7.078e-029  7.079e-029   -28.150   -28.150     0.000
K               1.200e-004
   K+                    1.200e-004  1.160e-004    -3.921    -3.936    -0.015
   KOH                   1.271e-010  1.271e-010    -9.896    -9.896     0.000
Mg              5.000e-006
   Mg+2                  4.995e-006  4.382e-006    -5.301    -5.358    -0.057
   MgOH+                 5.205e-009  5.031e-009    -8.284    -8.298    -0.015
Na              4.052e-004
   Na+                   4.052e-004  3.917e-004    -3.392    -3.407    -0.015
   NaOH                  8.184e-010  8.184e-010    -9.087    -9.087     0.000
O(0)            1.663e-036
   O2                    8.315e-037  8.317e-037   -36.080   -36.080     0.000
Pb              2.500e-006
   PbOH+                 1.925e-006  1.861e-006    -5.716    -5.730    -0.015
   Pb+2                  3.455e-007  3.018e-007    -6.462    -6.520    -0.059
   Pb(OH)2               2.289e-007  2.289e-007    -6.640    -6.640     0.000
   Pb(OH)3-              8.597e-010  8.311e-010    -9.066    -9.080    -0.015
   Pb(OH)4-2             6.897e-013  6.020e-013   -12.161   -12.220    -0.059
Zn              5.000e-005
   Zn(OH)2               2.279e-005  2.279e-005    -4.642    -4.642     0.000
   Zn+2                  2.069e-005  1.811e-005    -4.684    -4.742    -0.058
   ZnOH+                 6.494e-006  6.278e-006    -5.187    -5.202    -0.015
   Zn(OH)3-              2.358e-008  2.279e-008    -7.627    -7.642    -0.015
   Zn(OH)4-2             1.309e-012  1.142e-012   -11.883   -11.942    -0.059

------------------------------Saturation indices-------------------------------

	Phase               SI log IAP  log KT

	H2(g)           -25.00  -28.15   -3.15  H2
	O2(g)           -33.12  -36.08   -2.96  O2

------------------
End of simulation.
------------------

------------------------------------
Reading input data for simulation 5.
------------------------------------

	MIX 4 
		1001	0.334585	
	 SAVE SOLUTION	4	 
	 END
-----------------------------------------
Beginning of batch-reaction calculations.
-----------------------------------------

Reaction step 1.

Using mix 4.	

Mixture 4.	

	 3.346e-001 Solution 1001	initial condition 0-28                                 

-----------------------------Solution composition------------------------------

	Elements           Molality       Moles

	Br               7.800e-004  2.610e-004
	Ca               9.800e-005  3.279e-005
	Cd               8.000e-007  2.677e-007
	K                1.200e-004  4.015e-005
	Mg               5.000e-006  1.673e-006
	Na               4.052e-004  1.356e-004
	Pb               2.500e-006  8.365e-007
	Zn               5.000e-005  1.673e-005

----------------------------Description of solution----------------------------

                                       pH  =   8.500      Charge balance
                                       pe  =   4.000      Adjusted to redox equilibrium
                        Activity of water  =   1.000
                           Ionic strength  =  9.081e-004
                       Mass of water (kg)  =  3.346e-001
                 Total alkalinity (eq/kg)  =  5.783e-005
                    Total carbon (mol/kg)  =  0.000e+000
                       Total CO2 (mol/kg)  =  0.000e+000
                      Temperature (deg C)  =  25.000
                  Electrical balance (eq)  =  9.053e-013
 Percent error, 100*(Cat-|An|)/(Cat+|An|)  =   0.00
                               Iterations  =   0
                                  Total H  = 3.714311e+001
                                  Total O  = 1.857157e+001

----------------------------Distribution of species----------------------------

                                                   Log       Log         Log 
   Species                 Molality    Activity  Molality  Activity     Gamma

   OH-                   3.272e-006  3.162e-006    -5.485    -5.500    -0.015
   H+                    3.266e-009  3.162e-009    -8.486    -8.500    -0.014
   H2O                   5.551e+001  1.000e+000     1.744    -0.000     0.000
Br              7.800e-004
   Br-                   7.800e-004  7.537e-004    -3.108    -3.123    -0.015
Ca              9.800e-005
   Ca+2                  9.800e-005  8.576e-005    -4.009    -4.067    -0.058
   CaOH+                 4.656e-009  4.501e-009    -8.332    -8.347    -0.015
Cd              8.000e-007
   Cd+2                  7.811e-007  6.827e-007    -6.107    -6.166    -0.058
   CdOH+                 1.858e-008  1.796e-008    -7.731    -7.746    -0.015
   Cd(OH)2               3.050e-010  3.050e-010    -9.516    -9.516     0.000
   Cd(OH)3-              1.119e-014  1.082e-014   -13.951   -13.966    -0.015
   Cd(OH)4-2             3.493e-020  3.049e-020   -19.457   -19.516    -0.059
H(0)            1.416e-028
   H2                    7.078e-029  7.079e-029   -28.150   -28.150     0.000
K               1.200e-004
   K+                    1.200e-004  1.160e-004    -3.921    -3.936    -0.015
   KOH                   1.271e-010  1.271e-010    -9.896    -9.896     0.000
Mg              5.000e-006
   Mg+2                  4.995e-006  4.382e-006    -5.301    -5.358    -0.057
   MgOH+                 5.205e-009  5.031e-009    -8.284    -8.298    -0.015
Na              4.052e-004
   Na+                   4.052e-004  3.917e-004    -3.392    -3.407    -0.015
   NaOH                  8.184e-010  8.184e-010    -9.087    -9.087     0.000
O(0)            1.663e-036
   O2                    8.315e-037  8.317e-037   -36.080   -36.080     0.000
Pb              2.500e-006
   PbOH+                 1.925e-006  1.861e-006    -5.716    -5.730    -0.015
   Pb+2                  3.455e-007  3.018e-007    -6.462    -6.520    -0.059
   Pb(OH)2               2.289e-007  2.289e-007    -6.640    -6.640     0.000
   Pb(OH)3-              8.597e-010  8.311e-010    -9.066    -9.080    -0.015
   Pb(OH)4-2             6.897e-013  6.020e-013   -12.161   -12.220    -0.059
Zn              5.000e-005
   Zn(OH)2               2.279e-005  2.279e-005    -4.642    -4.642     0.000
   Zn+2                  2.069e-005  1.811e-005    -4.684    -4.742    -0.058
   ZnOH+                 6.494e-006  6.278e-006    -5.187    -5.202    -0.015
   Zn(OH)3-              2.358e-008  2.279e-008    -7.627    -7.642    -0.015
   Zn(OH)4-2             1.309e-012  1.142e-012   -11.883   -11.942    -0.059

------------------------------Saturation indices-------------------------------

	Phase               SI log IAP  log KT

	H2(g)           -25.00  -28.15   -3.15  H2
	O2(g)           -33.12  -36.08   -2.96  O2

------------------
End of simulation.
------------------

------------------------------------
Reading input data for simulation 6.
------------------------------------

	MIX 5 
		1001	0.334585	
	 SAVE SOLUTION	5	 
	 END
-----------------------------------------
Beginning of batch-reaction calculations.
-----------------------------------------

Reaction step 1.

Using mix 5.	

Mixture 5.	

	 3.346e-001 Solution 1001	initial condition 0-28                                 

-----------------------------Solution composition------------------------------

	Elements           Molality       Moles

	Br               7.800e-004  2.610e-004
	Ca               9.800e-005  3.279e-005
	Cd               8.000e-007  2.677e-007
	K                1.200e-004  4.015e-005
	Mg               5.000e-006  1.673e-006
	Na               4.052e-004  1.356e-004
	Pb               2.500e-006  8.365e-007
	Zn               5.000e-005  1.673e-005

----------------------------Description of solution----------------------------

                                       pH  =   8.500      Charge balance
                                       pe  =   4.000      Adjusted to redox equilibrium
                        Activity of water  =   1.000
                           Ionic strength  =  9.081e-004
                       Mass of water (kg)  =  3.346e-001
                 Total alkalinity (eq/kg)  =  5.783e-005
                    Total carbon (mol/kg)  =  0.000e+000
                       Total CO2 (mol/kg)  =  0.000e+000
                      Temperature (deg C)  =  25.000
                  Electrical balance (eq)  =  9.053e-013
 Percent error, 100*(Cat-|An|)/(Cat+|An|)  =   0.00
                               Iterations  =   0
                                  Total H  = 3.714311e+001
                                  Total O  = 1.857157e+001

----------------------------Distribution of species----------------------------

                                                   Log       Log         Log 
   Species                 Molality    Activity  Molality  Activity     Gamma

   OH-                   3.272e-006  3.162e-006    -5.485    -5.500    -0.015
   H+                    3.266e-009  3.162e-009    -8.486    -8.500    -0.014
   H2O                   5.551e+001  1.000e+000     1.744    -0.000     0.000
Br              7.800e-004
   Br-                   7.800e-004  7.537e-004    -3.108    -3.123    -0.015
Ca              9.800e-005
   Ca+2                  9.800e-005  8.576e-005    -4.009    -4.067    -0.058
   CaOH+                 4.656e-009  4.501e-009    -8.332    -8.347    -0.015
Cd              8.000e-007
   Cd+2                  7.811e-007  6.827e-007    -6.107    -6.166    -0.058
   CdOH+                 1.858e-008  1.796e-008    -7.731    -7.746    -0.015
   Cd(OH)2               3.050e-010  3.050e-010    -9.516    -9.516     0.000
   Cd(OH)3-              1.119e-014  1.082e-014   -13.951   -13.966    -0.015
   Cd(OH)4-2             3.493e-020  3.049e-020   -19.457   -19.516    -0.059
H(0)            1.416e-028
   H2                    7.078e-029  7.079e-029   -28.150   -28.150     0.000
K               1.200e-004
   K+                    1.200e-004  1.160e-004    -3.921    -3.936    -0.015
   KOH                   1.271e-010  1.271e-010    -9.896    -9.896     0.000
Mg              5.000e-006
   Mg+2                  4.995e-006  4.382e-006    -5.301    -5.358    -0.057
   MgOH+                 5.205e-009  5.031e-009    -8.284    -8.298    -0.015
Na              4.052e-004
   Na+                   4.052e-004  3.917e-004    -3.392    -3.407    -0.015
   NaOH                  8.184e-010  8.184e-010    -9.087    -9.087     0.000
O(0)            1.663e-036
   O2                    8.315e-037  8.317e-037   -36.080   -36.080     0.000
Pb              2.500e-006
   PbOH+                 1.925e-006  1.861e-006    -5.716    -5.730    -0.015
   Pb+2                  3.455e-007  3.018e-007    -6.462    -6.520    -0.059
   Pb(OH)2               2.289e-007  2.289e-007    -6.640    -6.640     0.000
   Pb(OH)3-              8.597e-010  8.311e-010    -9.066    -9.080    -0.015
   Pb(OH)4-2             6.897e-013  6.020e-013   -12.161   -12.220    -0.059
Zn              5.000e-005
   Zn(OH)2               2.279e-005  2.279e-005    -4.642    -4.642     0.000
   Zn+2                  2.069e-005  1.811e-005    -4.684    -4.742    -0.058
   ZnOH+                 6.494e-006  6.278e-006    -5.187    -5.202    -0.015
   Zn(OH)3-              2.358e-008  2.279e-008    -7.627    -7.642    -0.015
   Zn(OH)4-2             1.309e-012  1.142e-012   -11.883   -11.942    -0.059

------------------------------Saturation indices-------------------------------

	Phase               SI log IAP  log KT

	H2(g)           -25.00  -28.15   -3.15  H2
	O2(g)           -33.12  -36.08   -2.96  O2

------------------
End of simulation.
------------------

------------------------------------
Reading input data for simulation 7.
------------------------------------

	MIX 6 
		1001	0.334585	
	 SAVE SOLUTION	6	 
	 END
-----------------------------------------
Beginning of batch-reaction calculations.
-----------------------------------------

Reaction step 1.

Using mix 6.	

Mixture 6.	

	 3.346e-001 Solution 1001	initial condition 0-28                                 

-----------------------------Solution composition------------------------------

	Elements           Molality       Moles

	Br               7.800e-004  2.610e-004
	Ca               9.800e-005  3.279e-005
	Cd               8.000e-007  2.677e-007
	K                1.200e-004  4.015e-005
	Mg               5.000e-006  1.673e-006
	Na               4.052e-004  1.356e-004
	Pb               2.500e-006  8.365e-007
	Zn               5.000e-005  1.673e-005

----------------------------Description of solution----------------------------

                                       pH  =   8.500      Charge balance
                                       pe  =   4.000      Adjusted to redox equilibrium
                        Activity of water  =   1.000
                           Ionic strength  =  9.081e-004
                       Mass of water (kg)  =  3.346e-001
                 Total alkalinity (eq/kg)  =  5.783e-005
                    Total carbon (mol/kg)  =  0.000e+000
                       Total CO2 (mol/kg)  =  0.000e+000
                      Temperature (deg C)  =  25.000
                  Electrical balance (eq)  =  9.053e-013
 Percent error, 100*(Cat-|An|)/(Cat+|An|)  =   0.00
                               Iterations  =   0
                                  Total H  = 3.714311e+001
                                  Total O  = 1.857157e+001

----------------------------Distribution of species----------------------------

                                                   Log       Log         Log 
   Species                 Molality    Activity  Molality  Activity     Gamma

   OH-                   3.272e-006  3.162e-006    -5.485    -5.500    -0.015
   H+                    3.266e-009  3.162e-009    -8.486    -8.500    -0.014
   H2O                   5.551e+001  1.000e+000     1.744    -0.000     0.000
Br              7.800e-004
   Br-                   7.800e-004  7.537e-004    -3.108    -3.123    -0.015
Ca              9.800e-005
   Ca+2                  9.800e-005  8.576e-005    -4.009    -4.067    -0.058
   CaOH+                 4.656e-009  4.501e-009    -8.332    -8.347    -0.015
Cd              8.000e-007
   Cd+2                  7.811e-007  6.827e-007    -6.107    -6.166    -0.058
   CdOH+                 1.858e-008  1.796e-008    -7.731    -7.746    -0.015
   Cd(OH)2               3.050e-010  3.050e-010    -9.516    -9.516     0.000
   Cd(OH)3-              1.119e-014  1.082e-014   -13.951   -13.966    -0.015
   Cd(OH)4-2             3.493e-020  3.049e-020   -19.457   -19.516    -0.059
H(0)            1.416e-028
   H2                    7.078e-029  7.079e-029   -28.150   -28.150     0.000
K               1.200e-004
   K+                    1.200e-004  1.160e-004    -3.921    -3.936    -0.015
   KOH                   1.271e-010  1.271e-010    -9.896    -9.896     0.000
Mg              5.000e-006
   Mg+2                  4.995e-006  4.382e-006    -5.301    -5.358    -0.057
   MgOH+                 5.205e-009  5.031e-009    -8.284    -8.298    -0.015
Na              4.052e-004
   Na+                   4.052e-004  3.917e-004    -3.392    -3.407    -0.015
   NaOH                  8.184e-010  8.184e-010    -9.087    -9.087     0.000
O(0)            1.663e-036
   O2                    8.315e-037  8.317e-037   -36.080   -36.080     0.000
Pb              2.500e-006
   PbOH+                 1.925e-006  1.861e-006    -5.716    -5.730    -0.015
   Pb+2                  3.455e-007  3.018e-007    -6.462    -6.520    -0.059
   Pb(OH)2               2.289e-007  2.289e-007    -6.640    -6.640     0.000
   Pb(OH)3-              8.597e-010  8.311e-010    -9.066    -9.080    -0.015
   Pb(OH)4-2             6.897e-013  6.020e-013   -12.161   -12.220    -0.059
Zn              5.000e-005
   Zn(OH)2               2.279e-005  2.279e-005    -4.642    -4.642     0.000
   Zn+2                  2.069e-005  1.811e-005    -4.684    -4.742    -0.058
   ZnOH+                 6.494e-006  6.278e-006    -5.187    -5.202    -0.015
   Zn(OH)3-              2.358e-008  2.279e-008    -7.627    -7.642    -0.015
   Zn(OH)4-2             1.309e-012  1.142e-012   -11.883   -11.942    -0.059

------------------------------Saturation indices-------------------------------

	Phase               SI log IAP  log KT

	H2(g)           -25.00  -28.15   -3.15  H2
	O2(g)           -33.12  -36.08   -2.96  O2

------------------
End of simulation.
------------------

------------------------------------
Reading input data for simulation 8.
------------------------------------

	MIX 7 
		1001	0.332604	
	 SAVE SOLUTION	7	 
	 END
-----------------------------------------
Beginning of batch-reaction calculations.
-----------------------------------------

Reaction step 1.

Using mix 7.	

Mixture 7.	

	 3.326e-001 Solution 1001	initial condition 0-28                                 

-----------------------------Solution composition------------------------------

	Elements           Molality       Moles

	Br               7.800e-004  2.594e-004
	Ca               9.800e-005  3.260e-005
	Cd               8.000e-007  2.661e-007
	K                1.200e-004  3.991e-005
	Mg               5.000e-006  1.663e-006
	Na               4.052e-004  1.348e-004
	Pb               2.500e-006  8.315e-007
	Zn               5.000e-005  1.663e-005

----------------------------Description of solution----------------------------

                                       pH  =   8.500      Charge balance
                                       pe  =   4.000      Adjusted to redox equilibrium
                        Activity of water  =   1.000
                           Ionic strength  =  9.081e-004
                       Mass of water (kg)  =  3.326e-001
                 Total alkalinity (eq/kg)  =  5.783e-005
                    Total carbon (mol/kg)  =  0.000e+000
                       Total CO2 (mol/kg)  =  0.000e+000
                      Temperature (deg C)  =  25.000
                  Electrical balance (eq)  =  8.999e-013
 Percent error, 100*(Cat-|An|)/(Cat+|An|)  =   0.00
                               Iterations  =   0
                                  Total H  = 3.692320e+001
                                  Total O  = 1.846161e+001

----------------------------Distribution of species----------------------------

                                                   Log       Log         Log 
   Species                 Molality    Activity  Molality  Activity     Gamma

   OH-                   3.272e-006  3.162e-006    -5.485    -5.500    -0.015
   H+                    3.266e-009  3.162e-009    -8.486    -8.500    -0.014
   H2O                   5.551e+001  1.000e+000     1.744    -0.000     0.000
Br              7.800e-004
   Br-                   7.800e-004  7.537e-004    -3.108    -3.123    -0.015
Ca              9.800e-005
   Ca+2                  9.800e-005  8.576e-005    -4.009    -4.067    -0.058
   CaOH+                 4.656e-009  4.501e-009    -8.332    -8.347    -0.015
Cd              8.000e-007
   Cd+2                  7.811e-007  6.827e-007    -6.107    -6.166    -0.058
   CdOH+                 1.858e-008  1.796e-008    -7.731    -7.746    -0.015
   Cd(OH)2               3.050e-010  3.050e-010    -9.516    -9.516     0.000
   Cd(OH)3-              1.119e-014  1.082e-014   -13.951   -13.966    -0.015
   Cd(OH)4-2             3.493e-020  3.049e-020   -19.457   -19.516    -0.059
H(0)            1.416e-028
   H2                    7.078e-029  7.079e-029   -28.150   -28.150     0.000
K               1.200e-004
   K+                    1.200e-004  1.160e-004    -3.921    -3.936    -0.015
   KOH                   1.271e-010  1.271e-010    -9.896    -9.896     0.000
Mg              5.000e-006
   Mg+2                  4.995e-006  4.382e-006    -5.301    -5.358    -0.057
   MgOH+                 5.205e-009  5.031e-009    -8.284    -8.298    -0.015
Na              4.052e-004
   Na+                   4.052e-004  3.917e-004    -3.392    -3.407    -0.015
   NaOH                  8.184e-010  8.184e-010    -9.087    -9.087     0.000
O(0)            1.663e-036
   O2                    8.315e-037  8.317e-037   -36.080   -36.080     0.000
Pb              2.500e-006
   PbOH+                 1.925e-006  1.861e-006    -5.716    -5.730    -0.015
   Pb+2                  3.455e-007  3.018e-007    -6.462    -6.520    -0.059
   Pb(OH)2               2.289e-007  2.289e-007    -6.640    -6.640     0.000
   Pb(OH)3-              8.597e-010  8.311e-010    -9.066    -9.080    -0.015
   Pb(OH)4-2             6.897e-013  6.020e-013   -12.161   -12.220    -0.059
Zn              5.000e-005
   Zn(OH)2               2.279e-005  2.279e-005    -4.642    -4.642     0.000
   Zn+2                  2.069e-005  1.811e-005    -4.684    -4.742    -0.058
   ZnOH+                 6.494e-006  6.278e-006    -5.187    -5.202    -0.015
   Zn(OH)3-              2.358e-008  2.279e-008    -7.627    -7.642    -0.015
   Zn(OH)4-2             1.309e-012  1.142e-012   -11.883   -11.942    -0.059

------------------------------Saturation indices-------------------------------

	Phase               SI log IAP  log KT

	H2(g)           -25.00  -28.15   -3.15  H2
	O2(g)           -33.12  -36.08   -2.96  O2

------------------
End of simulation.
------------------

------------------------------------
Reading input data for simulation 9.
------------------------------------

	MIX 8 
		1001	0.332604	
	 SAVE SOLUTION	8	 
	 END
-----------------------------------------
Beginning of batch-reaction calculations.
-----------------------------------------

Reaction step 1.

Using mix 8.	

Mixture 8.	

	 3.326e-001 Solution 1001	initial condition 0-28                                 

-----------------------------Solution composition------------------------------

	Elements           Molality       Moles

	Br               7.800e-004  2.594e-004
	Ca               9.800e-005  3.260e-005
	Cd               8.000e-007  2.661e-007
	K                1.200e-004  3.991e-005
	Mg               5.000e-006  1.663e-006
	Na               4.052e-004  1.348e-004
	Pb               2.500e-006  8.315e-007
	Zn               5.000e-005  1.663e-005

----------------------------Description of solution----------------------------

                                       pH  =   8.500      Charge balance
                                       pe  =   4.000      Adjusted to redox equilibrium
                        Activity of water  =   1.000
                           Ionic strength  =  9.081e-004
                       Mass of water (kg)  =  3.326e-001
                 Total alkalinity (eq/kg)  =  5.783e-005
                    Total carbon (mol/kg)  =  0.000e+000
                       Total CO2 (mol/kg)  =  0.000e+000
                      Temperature (deg C)  =  25.000
                  Electrical balance (eq)  =  8.999e-013
 Percent error, 100*(Cat-|An|)/(Cat+|An|)  =   0.00
                               Iterations  =   0
                                  Total H  = 3.692320e+001
                                  Total O  = 1.846161e+001

----------------------------Distribution of species----------------------------

                                                   Log       Log         Log 
   Species                 Molality    Activity  Molality  Activity     Gamma

   OH-                   3.272e-006  3.162e-006    -5.485    -5.500    -0.015
   H+                    3.266e-009  3.162e-009    -8.486    -8.500    -0.014
   H2O                   5.551e+001  1.000e+000     1.744    -0.000     0.000
Br              7.800e-004
   Br-                   7.800e-004  7.537e-004    -3.108    -3.123    -0.015
Ca              9.800e-005
   Ca+2                  9.800e-005  8.576e-005    -4.009    -4.067    -0.058
   CaOH+                 4.656e-009  4.501e-009    -8.332    -8.347    -0.015
Cd              8.000e-007
   Cd+2                  7.811e-007  6.827e-007    -6.107    -6.166    -0.058
   CdOH+                 1.858e-008  1.796e-008    -7.731    -7.746    -0.015
   Cd(OH)2               3.050e-010  3.050e-010    -9.516    -9.516     0.000
   Cd(OH)3-              1.119e-014  1.082e-014   -13.951   -13.966    -0.015
   Cd(OH)4-2             3.493e-020  3.049e-020   -19.457   -19.516    -0.059
H(0)            1.416e-028
   H2                    7.078e-029  7.079e-029   -28.150   -28.150     0.000
K               1.200e-004
   K+                    1.200e-004  1.160e-004    -3.921    -3.936    -0.015
   KOH                   1.271e-010  1.271e-010    -9.896    -9.896     0.000
Mg              5.000e-006
   Mg+2                  4.995e-006  4.382e-006    -5.301    -5.358    -0.057
   MgOH+                 5.205e-009  5.031e-009    -8.284    -8.298    -0.015
Na              4.052e-004
   Na+                   4.052e-004  3.917e-004    -3.392    -3.407    -0.015
   NaOH                  8.184e-010  8.184e-010    -9.087    -9.087     0.000
O(0)            1.663e-036
   O2                    8.315e-037  8.317e-037   -36.080   -36.080     0.000
Pb              2.500e-006
   PbOH+                 1.925e-006  1.861e-006    -5.716    -5.730    -0.015
   Pb+2                  3.455e-007  3.018e-007    -6.462    -6.520    -0.059
   Pb(OH)2               2.289e-007  2.289e-007    -6.640    -6.640     0.000
   Pb(OH)3-              8.597e-010  8.311e-010    -9.066    -9.080    -0.015
   Pb(OH)4-2             6.897e-013  6.020e-013   -12.161   -12.220    -0.059
Zn              5.000e-005
   Zn(OH)2               2.279e-005  2.279e-005    -4.642    -4.642     0.000
   Zn+2                  2.069e-005  1.811e-005    -4.684    -4.742    -0.058
   ZnOH+                 6.494e-006  6.278e-006    -5.187    -5.202    -0.015
   Zn(OH)3-              2.358e-008  2.279e-008    -7.627    -7.642    -0.015
   Zn(OH)4-2             1.309e-012  1.142e-012   -11.883   -11.942    -0.059

------------------------------Saturation indices-------------------------------

	Phase               SI log IAP  log KT

	H2(g)           -25.00  -28.15   -3.15  H2
	O2(g)           -33.12  -36.08   -2.96  O2

------------------
End of simulation.
------------------

-------------------------------------
Reading input data for simulation 10.
-------------------------------------

	MIX 9 
		1001	0.332604	
	 SAVE SOLUTION	9	 
	 END
-----------------------------------------
Beginning of batch-reaction calculations.
-----------------------------------------

Reaction step 1.

Using mix 9.	

Mixture 9.	

	 3.326e-001 Solution 1001	initial condition 0-28                                 

-----------------------------Solution composition------------------------------

	Elements           Molality       Moles

	Br               7.800e-004  2.594e-004
	Ca               9.800e-005  3.260e-005
	Cd               8.000e-007  2.661e-007
	K                1.200e-004  3.991e-005
	Mg               5.000e-006  1.663e-006
	Na               4.052e-004  1.348e-004
	Pb               2.500e-006  8.315e-007
	Zn               5.000e-005  1.663e-005

----------------------------Description of solution----------------------------

                                       pH  =   8.500      Charge balance
                                       pe  =   4.000      Adjusted to redox equilibrium
                        Activity of water  =   1.000
                           Ionic strength  =  9.081e-004
                       Mass of water (kg)  =  3.326e-001
                 Total alkalinity (eq/kg)  =  5.783e-005
                    Total carbon (mol/kg)  =  0.000e+000
                       Total CO2 (mol/kg)  =  0.000e+000
                      Temperature (deg C)  =  25.000
                  Electrical balance (eq)  =  8.999e-013
 Percent error, 100*(Cat-|An|)/(Cat+|An|)  =   0.00
                               Iterations  =   0
                                  Total H  = 3.692320e+001
                                  Total O  = 1.846161e+001

----------------------------Distribution of species----------------------------

                                                   Log       Log         Log 
   Species                 Molality    Activity  Molality  Activity     Gamma

   OH-                   3.272e-006  3.162e-006    -5.485    -5.500    -0.015
   H+                    3.266e-009  3.162e-009    -8.486    -8.500    -0.014
   H2O                   5.551e+001  1.000e+000     1.744    -0.000     0.000
Br              7.800e-004
   Br-                   7.800e-004  7.537e-004    -3.108    -3.123    -0.015
Ca              9.800e-005
   Ca+2                  9.800e-005  8.576e-005    -4.009    -4.067    -0.058
   CaOH+                 4.656e-009  4.501e-009    -8.332    -8.347    -0.015
Cd              8.000e-007
   Cd+2                  7.811e-007  6.827e-007    -6.107    -6.166    -0.058
   CdOH+                 1.858e-008  1.796e-008    -7.731    -7.746    -0.015
   Cd(OH)2               3.050e-010  3.050e-010    -9.516    -9.516     0.000
   Cd(OH)3-              1.119e-014  1.082e-014   -13.951   -13.966    -0.015
   Cd(OH)4-2             3.493e-020  3.049e-020   -19.457   -19.516    -0.059
H(0)            1.416e-028
   H2                    7.078e-029  7.079e-029   -28.150   -28.150     0.000
K               1.200e-004
   K+                    1.200e-004  1.160e-004    -3.921    -3.936    -0.015
   KOH                   1.271e-010  1.271e-010    -9.896    -9.896     0.000
Mg              5.000e-006
   Mg+2                  4.995e-006  4.382e-006    -5.301    -5.358    -0.057
   MgOH+                 5.205e-009  5.031e-009    -8.284    -8.298    -0.015
Na              4.052e-004
   Na+                   4.052e-004  3.917e-004    -3.392    -3.407    -0.015
   NaOH                  8.184e-010  8.184e-010    -9.087    -9.087     0.000
O(0)            1.663e-036
   O2                    8.315e-037  8.317e-037   -36.080   -36.080     0.000
Pb              2.500e-006
   PbOH+                 1.925e-006  1.861e-006    -5.716    -5.730    -0.015
   Pb+2                  3.455e-007  3.018e-007    -6.462    -6.520    -0.059
   Pb(OH)2               2.289e-007  2.289e-007    -6.640    -6.640     0.000
   Pb(OH)3-              8.597e-010  8.311e-010    -9.066    -9.080    -0.015
   Pb(OH)4-2             6.897e-013  6.020e-013   -12.161   -12.220    -0.059
Zn              5.000e-005
   Zn(OH)2               2.279e-005  2.279e-005    -4.642    -4.642     0.000
   Zn+2                  2.069e-005  1.811e-005    -4.684    -4.742    -0.058
   ZnOH+                 6.494e-006  6.278e-006    -5.187    -5.202    -0.015
   Zn(OH)3-              2.358e-008  2.279e-008    -7.627    -7.642    -0.015
   Zn(OH)4-2             1.309e-012  1.142e-012   -11.883   -11.942    -0.059

------------------------------Saturation indices-------------------------------

	Phase               SI log IAP  log KT

	H2(g)           -25.00  -28.15   -3.15  H2
	O2(g)           -33.12  -36.08   -2.96  O2

------------------
End of simulation.
------------------

-------------------------------------
Reading input data for simulation 11.
-------------------------------------

	MIX 10 
		1001	0.330644	
	 SAVE SOLUTION	10	 
	 END
-----------------------------------------
Beginning of batch-reaction calculations.
-----------------------------------------

Reaction step 1.

Using mix 10.	

Mixture 10.	

	 3.306e-001 Solution 1001	initial condition 0-28                                 

-----------------------------Solution composition------------------------------

	Elements           Molality       Moles

	Br               7.800e-004  2.579e-004
	Ca               9.800e-005  3.240e-005
	Cd               8.000e-007  2.645e-007
	K                1.200e-004  3.968e-005
	Mg               5.000e-006  1.653e-006
	Na               4.052e-004  1.340e-004
	Pb               2.500e-006  8.266e-007
	Zn               5.000e-005  1.653e-005

----------------------------Description of solution----------------------------

                                       pH  =   8.500      Charge balance
                                       pe  =   4.000      Adjusted to redox equilibrium
                        Activity of water  =   1.000
                           Ionic strength  =  9.081e-004
                       Mass of water (kg)  =  3.306e-001
                 Total alkalinity (eq/kg)  =  5.783e-005
                    Total carbon (mol/kg)  =  0.000e+000
                       Total CO2 (mol/kg)  =  0.000e+000
                      Temperature (deg C)  =  25.000
                  Electrical balance (eq)  =  8.946e-013
 Percent error, 100*(Cat-|An|)/(Cat+|An|)  =   0.00
                               Iterations  =   0
                                  Total H  = 3.670561e+001
                                  Total O  = 1.835282e+001

----------------------------Distribution of species----------------------------

                                                   Log       Log         Log 
   Species                 Molality    Activity  Molality  Activity     Gamma

   OH-                   3.272e-006  3.162e-006    -5.485    -5.500    -0.015
   H+                    3.266e-009  3.162e-009    -8.486    -8.500    -0.014
   H2O                   5.551e+001  1.000e+000     1.744    -0.000     0.000
Br              7.800e-004
   Br-                   7.800e-004  7.537e-004    -3.108    -3.123    -0.015
Ca              9.800e-005
   Ca+2                  9.800e-005  8.576e-005    -4.009    -4.067    -0.058
   CaOH+                 4.656e-009  4.501e-009    -8.332    -8.347    -0.015
Cd              8.000e-007
   Cd+2                  7.811e-007  6.827e-007    -6.107    -6.166    -0.058
   CdOH+                 1.858e-008  1.796e-008    -7.731    -7.746    -0.015
   Cd(OH)2               3.050e-010  3.050e-010    -9.516    -9.516     0.000
   Cd(OH)3-              1.119e-014  1.082e-014   -13.951   -13.966    -0.015
   Cd(OH)4-2             3.493e-020  3.049e-020   -19.457   -19.516    -0.059
H(0)            1.416e-028
   H2                    7.078e-029  7.079e-029   -28.150   -28.150     0.000
K               1.200e-004
   K+                    1.200e-004  1.160e-004    -3.921    -3.936    -0.015
   KOH                   1.271e-010  1.271e-010    -9.896    -9.896     0.000
Mg              5.000e-006
   Mg+2                  4.995e-006  4.382e-006    -5.301    -5.358    -0.057
   MgOH+                 5.205e-009  5.031e-009    -8.284    -8.298    -0.015
Na              4.052e-004
   Na+                   4.052e-004  3.917e-004    -3.392    -3.407    -0.015
   NaOH                  8.184e-010  8.184e-010    -9.087    -9.087     0.000
O(0)            1.663e-036
   O2                    8.315e-037  8.317e-037   -36.080   -36.080     0.000
Pb              2.500e-006
   PbOH+                 1.925e-006  1.861e-006    -5.716    -5.730    -0.015
   Pb+2                  3.455e-007  3.018e-007    -6.462    -6.520    -0.059
   Pb(OH)2               2.289e-007  2.289e-007    -6.640    -6.640     0.000
   Pb(OH)3-              8.597e-010  8.311e-010    -9.066    -9.080    -0.015
   Pb(OH)4-2             6.897e-013  6.020e-013   -12.161   -12.220    -0.059
Zn              5.000e-005
   Zn(OH)2               2.279e-005  2.279e-005    -4.642    -4.642     0.000
   Zn+2                  2.069e-005  1.811e-005    -4.684    -4.742    -0.058
   ZnOH+                 6.494e-006  6.278e-006    -5.187    -5.202    -0.015
   Zn(OH)3-              2.358e-008  2.279e-008    -7.627    -7.642    -0.015
   Zn(OH)4-2             1.309e-012  1.142e-012   -11.883   -11.942    -0.059

------------------------------Saturation indices-------------------------------

	Phase               SI log IAP  log KT

	H2(g)           -25.00  -28.15   -3.15  H2
	O2(g)           -33.12  -36.08   -2.96  O2

------------------
End of simulation.
------------------

-------------------------------------
Reading input data for simulation 12.
-------------------------------------

	MIX 11 
		1001	0.330644	
	 SAVE SOLUTION	11	 
	 END
-----------------------------------------
Beginning of batch-reaction calculations.
-----------------------------------------

Reaction step 1.

Using mix 11.	

Mixture 11.	

	 3.306e-001 Solution 1001	initial condition 0-28                                 

-----------------------------Solution composition------------------------------

	Elements           Molality       Moles

	Br               7.800e-004  2.579e-004
	Ca               9.800e-005  3.240e-005
	Cd               8.000e-007  2.645e-007
	K                1.200e-004  3.968e-005
	Mg               5.000e-006  1.653e-006
	Na               4.052e-004  1.340e-004
	Pb               2.500e-006  8.266e-007
	Zn               5.000e-005  1.653e-005

----------------------------Description of solution----------------------------

                                       pH  =   8.500      Charge balance
                                       pe  =   4.000      Adjusted to redox equilibrium
                        Activity of water  =   1.000
                           Ionic strength  =  9.081e-004
                       Mass of water (kg)  =  3.306e-001
                 Total alkalinity (eq/kg)  =  5.783e-005
                    Total carbon (mol/kg)  =  0.000e+000
                       Total CO2 (mol/kg)  =  0.000e+000
                      Temperature (deg C)  =  25.000
                  Electrical balance (eq)  =  8.946e-013
 Percent error, 100*(Cat-|An|)/(Cat+|An|)  =   0.00
                               Iterations  =   0
                                  Total H  = 3.670561e+001
                                  Total O  = 1.835282e+001

----------------------------Distribution of species----------------------------

                                                   Log       Log         Log 
   Species                 Molality    Activity  Molality  Activity     Gamma

   OH-                   3.272e-006  3.162e-006    -5.485    -5.500    -0.015
   H+                    3.266e-009  3.162e-009    -8.486    -8.500    -0.014
   H2O                   5.551e+001  1.000e+000     1.744    -0.000     0.000
Br              7.800e-004
   Br-                   7.800e-004  7.537e-004    -3.108    -3.123    -0.015
Ca              9.800e-005
   Ca+2                  9.800e-005  8.576e-005    -4.009    -4.067    -0.058
   CaOH+                 4.656e-009  4.501e-009    -8.332    -8.347    -0.015
Cd              8.000e-007
   Cd+2                  7.811e-007  6.827e-007    -6.107    -6.166    -0.058
   CdOH+                 1.858e-008  1.796e-008    -7.731    -7.746    -0.015
   Cd(OH)2               3.050e-010  3.050e-010    -9.516    -9.516     0.000
   Cd(OH)3-              1.119e-014  1.082e-014   -13.951   -13.966    -0.015
   Cd(OH)4-2             3.493e-020  3.049e-020   -19.457   -19.516    -0.059
H(0)            1.416e-028
   H2                    7.078e-029  7.079e-029   -28.150   -28.150     0.000
K               1.200e-004
   K+                    1.200e-004  1.160e-004    -3.921    -3.936    -0.015
   KOH                   1.271e-010  1.271e-010    -9.896    -9.896     0.000
Mg              5.000e-006
   Mg+2                  4.995e-006  4.382e-006    -5.301    -5.358    -0.057
   MgOH+                 5.205e-009  5.031e-009    -8.284    -8.298    -0.015
Na              4.052e-004
   Na+                   4.052e-004  3.917e-004    -3.392    -3.407    -0.015
   NaOH                  8.184e-010  8.184e-010    -9.087    -9.087     0.000
O(0)            1.663e-036
   O2                    8.315e-037  8.317e-037   -36.080   -36.080     0.000
Pb              2.500e-006
   PbOH+                 1.925e-006  1.861e-006    -5.716    -5.730    -0.015
   Pb+2                  3.455e-007  3.018e-007    -6.462    -6.520    -0.059
   Pb(OH)2               2.289e-007  2.289e-007    -6.640    -6.640     0.000
   Pb(OH)3-              8.597e-010  8.311e-010    -9.066    -9.080    -0.015
   Pb(OH)4-2             6.897e-013  6.020e-013   -12.161   -12.220    -0.059
Zn              5.000e-005
   Zn(OH)2               2.279e-005  2.279e-005    -4.642    -4.642     0.000
   Zn+2                  2.069e-005  1.811e-005    -4.684    -4.742    -0.058
   ZnOH+                 6.494e-006  6.278e-006    -5.187    -5.202    -0.015
   Zn(OH)3-              2.358e-008  2.279e-008    -7.627    -7.642    -0.015
   Zn(OH)4-2             1.309e-012  1.142e-012   -11.883   -11.942    -0.059

------------------------------Saturation indices-------------------------------

	Phase               SI log IAP  log KT

	H2(g)           -25.00  -28.15   -3.15  H2
	O2(g)           -33.12  -36.08   -2.96  O2

------------------
End of simulation.
------------------

-------------------------------------
Reading input data for simulation 13.
-------------------------------------

	MIX 12 
		1001	0.330644	
	 SAVE SOLUTION	12	 
	 END
-----------------------------------------
Beginning of batch-reaction calculations.
-----------------------------------------

Reaction step 1.

Using mix 12.	

Mixture 12.	

	 3.306e-001 Solution 1001	initial condition 0-28                                 

-----------------------------Solution composition------------------------------

	Elements           Molality       Moles

	Br               7.800e-004  2.579e-004
	Ca               9.800e-005  3.240e-005
	Cd               8.000e-007  2.645e-007
	K                1.200e-004  3.968e-005
	Mg               5.000e-006  1.653e-006
	Na               4.052e-004  1.340e-004
	Pb               2.500e-006  8.266e-007
	Zn               5.000e-005  1.653e-005

----------------------------Description of solution----------------------------

                                       pH  =   8.500      Charge balance
                                       pe  =   4.000      Adjusted to redox equilibrium
                        Activity of water  =   1.000
                           Ionic strength  =  9.081e-004
                       Mass of water (kg)  =  3.306e-001
                 Total alkalinity (eq/kg)  =  5.783e-005
                    Total carbon (mol/kg)  =  0.000e+000
                       Total CO2 (mol/kg)  =  0.000e+000
                      Temperature (deg C)  =  25.000
                  Electrical balance (eq)  =  8.946e-013
 Percent error, 100*(Cat-|An|)/(Cat+|An|)  =   0.00
                               Iterations  =   0
                                  Total H  = 3.670561e+001
                                  Total O  = 1.835282e+001

----------------------------Distribution of species----------------------------

                                                   Log       Log         Log 
   Species                 Molality    Activity  Molality  Activity     Gamma

   OH-                   3.272e-006  3.162e-006    -5.485    -5.500    -0.015
   H+                    3.266e-009  3.162e-009    -8.486    -8.500    -0.014
   H2O                   5.551e+001  1.000e+000     1.744    -0.000     0.000
Br              7.800e-004
   Br-                   7.800e-004  7.537e-004    -3.108    -3.123    -0.015
Ca              9.800e-005
   Ca+2                  9.800e-005  8.576e-005    -4.009    -4.067    -0.058
   CaOH+                 4.656e-009  4.501e-009    -8.332    -8.347    -0.015
Cd              8.000e-007
   Cd+2                  7.811e-007  6.827e-007    -6.107    -6.166    -0.058
   CdOH+                 1.858e-008  1.796e-008    -7.731    -7.746    -0.015
   Cd(OH)2               3.050e-010  3.050e-010    -9.516    -9.516     0.000
   Cd(OH)3-              1.119e-014  1.082e-014   -13.951   -13.966    -0.015
   Cd(OH)4-2             3.493e-020  3.049e-020   -19.457   -19.516    -0.059
H(0)            1.416e-028
   H2                    7.078e-029  7.079e-029   -28.150   -28.150     0.000
K               1.200e-004
   K+                    1.200e-004  1.160e-004    -3.921    -3.936    -0.015
   KOH                   1.271e-010  1.271e-010    -9.896    -9.896     0.000
Mg              5.000e-006
   Mg+2                  4.995e-006  4.382e-006    -5.301    -5.358    -0.057
   MgOH+                 5.205e-009  5.031e-009    -8.284    -8.298    -0.015
Na              4.052e-004
   Na+                   4.052e-004  3.917e-004    -3.392    -3.407    -0.015
   NaOH                  8.184e-010  8.184e-010    -9.087    -9.087     0.000
O(0)            1.663e-036
   O2                    8.315e-037  8.317e-037   -36.080   -36.080     0.000
Pb              2.500e-006
   PbOH+                 1.925e-006  1.861e-006    -5.716    -5.730    -0.015
   Pb+2                  3.455e-007  3.018e-007    -6.462    -6.520    -0.059
   Pb(OH)2               2.289e-007  2.289e-007    -6.640    -6.640     0.000
   Pb(OH)3-              8.597e-010  8.311e-010    -9.066    -9.080    -0.015
   Pb(OH)4-2             6.897e-013  6.020e-013   -12.161   -12.220    -0.059
Zn              5.000e-005
   Zn(OH)2               2.279e-005  2.279e-005    -4.642    -4.642     0.000
   Zn+2                  2.069e-005  1.811e-005    -4.684    -4.742    -0.058
   ZnOH+                 6.494e-006  6.278e-006    -5.187    -5.202    -0.015
   Zn(OH)3-              2.358e-008  2.279e-008    -7.627    -7.642    -0.015
   Zn(OH)4-2             1.309e-012  1.142e-012   -11.883   -11.942    -0.059

------------------------------Saturation indices-------------------------------

	Phase               SI log IAP  log KT

	H2(g)           -25.00  -28.15   -3.15  H2
	O2(g)           -33.12  -36.08   -2.96  O2

------------------
End of simulation.
------------------

-------------------------------------
Reading input data for simulation 14.
-------------------------------------

	MIX 13 
		1001	0.328703	
	 SAVE SOLUTION	13	 
	 END
-----------------------------------------
Beginning of batch-reaction calculations.
-----------------------------------------

Reaction step 1.

Using mix 13.	

Mixture 13.	

	 3.287e-001 Solution 1001	initial condition 0-28                                 

-----------------------------Solution composition------------------------------

	Elements           Molality       Moles

	Br               7.800e-004  2.564e-004
	Ca               9.800e-005  3.221e-005
	Cd               8.000e-007  2.630e-007
	K                1.200e-004  3.944e-005
	Mg               5.000e-006  1.644e-006
	Na               4.052e-004  1.332e-004
	Pb               2.500e-006  8.218e-007
	Zn               5.000e-005  1.644e-005

----------------------------Description of solution----------------------------

                                       pH  =   8.500      Charge balance
                                       pe  =   4.000      Adjusted to redox equilibrium
                        Activity of water  =   1.000
                           Ionic strength  =  9.081e-004
                       Mass of water (kg)  =  3.287e-001
                 Total alkalinity (eq/kg)  =  5.783e-005
                    Total carbon (mol/kg)  =  0.000e+000
                       Total CO2 (mol/kg)  =  0.000e+000
                      Temperature (deg C)  =  25.000
                  Electrical balance (eq)  =  8.893e-013
 Percent error, 100*(Cat-|An|)/(Cat+|An|)  =   0.00
                               Iterations  =   0
                                  Total H  = 3.649014e+001
                                  Total O  = 1.824508e+001

----------------------------Distribution of species----------------------------

                                                   Log       Log         Log 
   Species                 Molality    Activity  Molality  Activity     Gamma

   OH-                   3.272e-006  3.162e-006    -5.485    -5.500    -0.015
   H+                    3.266e-009  3.162e-009    -8.486    -8.500    -0.014
   H2O                   5.551e+001  1.000e+000     1.744    -0.000     0.000
Br              7.800e-004
   Br-                   7.800e-004  7.537e-004    -3.108    -3.123    -0.015
Ca              9.800e-005
   Ca+2                  9.800e-005  8.576e-005    -4.009    -4.067    -0.058
   CaOH+                 4.656e-009  4.501e-009    -8.332    -8.347    -0.015
Cd              8.000e-007
   Cd+2                  7.811e-007  6.827e-007    -6.107    -6.166    -0.058
   CdOH+                 1.858e-008  1.796e-008    -7.731    -7.746    -0.015
   Cd(OH)2               3.050e-010  3.050e-010    -9.516    -9.516     0.000
   Cd(OH)3-              1.119e-014  1.082e-014   -13.951   -13.966    -0.015
   Cd(OH)4-2             3.493e-020  3.049e-020   -19.457   -19.516    -0.059
H(0)            1.416e-028
   H2                    7.078e-029  7.079e-029   -28.150   -28.150     0.000
K               1.200e-004
   K+                    1.200e-004  1.160e-004    -3.921    -3.936    -0.015
   KOH                   1.271e-010  1.271e-010    -9.896    -9.896     0.000
Mg              5.000e-006
   Mg+2                  4.995e-006  4.382e-006    -5.301    -5.358    -0.057
   MgOH+                 5.205e-009  5.031e-009    -8.284    -8.298    -0.015
Na              4.052e-004
   Na+                   4.052e-004  3.917e-004    -3.392    -3.407    -0.015
   NaOH                  8.184e-010  8.184e-010    -9.087    -9.087     0.000
O(0)            1.663e-036
   O2                    8.315e-037  8.317e-037   -36.080   -36.080     0.000
Pb              2.500e-006
   PbOH+                 1.925e-006  1.861e-006    -5.716    -5.730    -0.015
   Pb+2                  3.455e-007  3.018e-007    -6.462    -6.520    -0.059
   Pb(OH)2               2.289e-007  2.289e-007    -6.640    -6.640     0.000
   Pb(OH)3-              8.597e-010  8.311e-010    -9.066    -9.080    -0.015
   Pb(OH)4-2             6.897e-013  6.020e-013   -12.161   -12.220    -0.059
Zn              5.000e-005
   Zn(OH)2               2.279e-005  2.279e-005    -4.642    -4.642     0.000
   Zn+2                  2.069e-005  1.811e-005    -4.684    -4.742    -0.058
   ZnOH+                 6.494e-006  6.278e-006    -5.187    -5.202    -0.015
   Zn(OH)3-              2.358e-008  2.279e-008    -7.627    -7.642    -0.015
   Zn(OH)4-2             1.309e-012  1.142e-012   -11.883   -11.942    -0.059

------------------------------Saturation indices-------------------------------

	Phase               SI log IAP  log KT

	H2(g)           -25.00  -28.15   -3.15  H2
	O2(g)           -33.12  -36.08   -2.96  O2

------------------
End of simulation.
------------------

-------------------------------------
Reading input data for simulation 15.
-------------------------------------

	MIX 14 
		1001	0.236479	
	 SAVE SOLUTION	14	 
	 END
-----------------------------------------
Beginning of batch-reaction calculations.
-----------------------------------------

Reaction step 1.

Using mix 14.	

Mixture 14.	

	 2.365e-001 Solution 1001	initial condition 0-28                                 

-----------------------------Solution composition------------------------------

	Elements           Molality       Moles

	Br               7.800e-004  1.845e-004
	Ca               9.800e-005  2.317e-005
	Cd               8.000e-007  1.892e-007
	K                1.200e-004  2.838e-005
	Mg               5.000e-006  1.182e-006
	Na               4.052e-004  9.583e-005
	Pb               2.500e-006  5.912e-007
	Zn               5.000e-005  1.182e-005

----------------------------Description of solution----------------------------

                                       pH  =   8.500      Charge balance
                                       pe  =   4.000      Adjusted to redox equilibrium
                        Activity of water  =   1.000
                           Ionic strength  =  9.081e-004
                       Mass of water (kg)  =  2.365e-001
                 Total alkalinity (eq/kg)  =  5.783e-005
                    Total carbon (mol/kg)  =  0.000e+000
                       Total CO2 (mol/kg)  =  0.000e+000
                      Temperature (deg C)  =  25.000
                  Electrical balance (eq)  =  6.398e-013
 Percent error, 100*(Cat-|An|)/(Cat+|An|)  =   0.00
                               Iterations  =   0
                                  Total H  = 2.625212e+001
                                  Total O  = 1.312607e+001

----------------------------Distribution of species----------------------------

                                                   Log       Log         Log 
   Species                 Molality    Activity  Molality  Activity     Gamma

   OH-                   3.272e-006  3.162e-006    -5.485    -5.500    -0.015
   H+                    3.266e-009  3.162e-009    -8.486    -8.500    -0.014
   H2O                   5.551e+001  1.000e+000     1.744    -0.000     0.000
Br              7.800e-004
[...]
-------------------------------------

	MIX 47 
		1002	0.141914	
	 SAVE SOLUTION	47	 
	 END
-----------------------------------------
Beginning of batch-reaction calculations.
-----------------------------------------

Reaction step 1.

Using mix 47.	

Mixture 47.	

	 1.419e-001 Solution 1002	initial condition 28-100                               

-----------------------------Solution composition------------------------------

	Elements           Molality       Moles

	Br               7.800e-004  1.107e-004
	Ca               9.800e-005  1.391e-005
	K                1.200e-004  1.703e-005
	Mg               5.000e-006  7.096e-007
	Na               4.573e-004  6.489e-005

----------------------------Description of solution----------------------------

                                       pH  =   8.500      Charge balance
                                       pe  =   4.000      Adjusted to redox equilibrium
                        Activity of water  =   1.000
                           Ionic strength  =  8.863e-004
                       Mass of water (kg)  =  1.419e-001
                 Total alkalinity (eq/kg)  =  3.278e-006
                    Total carbon (mol/kg)  =  0.000e+000
                       Total CO2 (mol/kg)  =  0.000e+000
                      Temperature (deg C)  =  25.000
                  Electrical balance (eq)  =  3.853e-013
 Percent error, 100*(Cat-|An|)/(Cat+|An|)  =   0.00
                               Iterations  =   0
                                  Total H  = 1.575422e+001
                                  Total O  = 7.877110e+000

----------------------------Distribution of species----------------------------

                                                   Log       Log         Log 
   Species                 Molality    Activity  Molality  Activity     Gamma

   OH-                   3.270e-006  3.162e-006    -5.485    -5.500    -0.015
   H+                    3.265e-009  3.162e-009    -8.486    -8.500    -0.014
   H2O                   5.551e+001  1.000e+000     1.744    -0.000     0.000
Br              7.800e-004
   Br-                   7.800e-004  7.541e-004    -3.108    -3.123    -0.015
Ca              9.800e-005
   Ca+2                  9.800e-005  8.589e-005    -4.009    -4.066    -0.057
   CaOH+                 4.661e-009  4.508e-009    -8.332    -8.346    -0.015
H(0)            1.416e-028
   H2                    7.078e-029  7.079e-029   -28.150   -28.150     0.000
K               1.200e-004
   K+                    1.200e-004  1.160e-004    -3.921    -3.936    -0.015
   KOH                   1.272e-010  1.272e-010    -9.896    -9.896     0.000
Mg              5.000e-006
   Mg+2                  4.995e-006  4.388e-006    -5.301    -5.358    -0.056
   MgOH+                 5.210e-009  5.038e-009    -8.283    -8.298    -0.015
Na              4.573e-004
   Na+                   4.573e-004  4.422e-004    -3.340    -3.354    -0.015
   NaOH                  9.239e-010  9.239e-010    -9.034    -9.034     0.000
O(0)            1.663e-036
   O2                    8.316e-037  8.317e-037   -36.080   -36.080     0.000

------------------------------Saturation indices-------------------------------

	Phase               SI log IAP  log KT

	H2(g)           -25.00  -28.15   -3.15  H2
	O2(g)           -33.12  -36.08   -2.96  O2

------------------
End of simulation.
------------------

-------------------------------------
Reading input data for simulation 49.
-------------------------------------

	MIX 48 
		1002	0.141914	
	 SAVE SOLUTION	48	 
	 END
-----------------------------------------
Beginning of batch-reaction calculations.
-----------------------------------------

Reaction step 1.

Using mix 48.	

Mixture 48.	

	 1.419e-001 Solution 1002	initial condition 28-100                               

-----------------------------Solution composition------------------------------

	Elements           Molality       Moles

	Br               7.800e-004  1.107e-004
	Ca               9.800e-005  1.391e-005
	K                1.200e-004  1.703e-005
	Mg               5.000e-006  7.096e-007
	Na               4.573e-004  6.489e-005

----------------------------Description of solution----------------------------

                                       pH  =   8.500      Charge balance
                                       pe  =   4.000      Adjusted to redox equilibrium
                        Activity of water  =   1.000
                           Ionic strength  =  8.863e-004
                       Mass of water (kg)  =  1.419e-001
                 Total alkalinity (eq/kg)  =  3.278e-006
                    Total carbon (mol/kg)  =  0.000e+000
                       Total CO2 (mol/kg)  =  0.000e+000
                      Temperature (deg C)  =  25.000
                  Electrical balance (eq)  =  3.853e-013
 Percent error, 100*(Cat-|An|)/(Cat+|An|)  =   0.00
                               Iterations  =   0
                                  Total H  = 1.575422e+001
                                  Total O  = 7.877110e+000

----------------------------Distribution of species----------------------------

                                                   Log       Log         Log 
   Species                 Molality    Activity  Molality  Activity     Gamma

   OH-                   3.270e-006  3.162e-006    -5.485    -5.500    -0.015
   H+                    3.265e-009  3.162e-009    -8.486    -8.500    -0.014
   H2O                   5.551e+001  1.000e+000     1.744    -0.000     0.000
Br              7.800e-004
   Br-                   7.800e-004  7.541e-004    -3.108    -3.123    -0.015
Ca              9.800e-005
   Ca+2                  9.800e-005  8.589e-005    -4.009    -4.066    -0.057
   CaOH+                 4.661e-009  4.508e-009    -8.332    -8.346    -0.015
H(0)            1.416e-028
   H2                    7.078e-029  7.079e-029   -28.150   -28.150     0.000
K               1.200e-004
   K+                    1.200e-004  1.160e-004    -3.921    -3.936    -0.015
   KOH                   1.272e-010  1.272e-010    -9.896    -9.896     0.000
Mg              5.000e-006
   Mg+2                  4.995e-006  4.388e-006    -5.301    -5.358    -0.056
   MgOH+                 5.210e-009  5.038e-009    -8.283    -8.298    -0.015
Na              4.573e-004
   Na+                   4.573e-004  4.422e-004    -3.340    -3.354    -0.015
   NaOH                  9.239e-010  9.239e-010    -9.034    -9.034     0.000
O(0)            1.663e-036
   O2                    8.316e-037  8.317e-037   -36.080   -36.080     0.000

------------------------------Saturation indices-------------------------------

	Phase               SI log IAP  log KT

	H2(g)           -25.00  -28.15   -3.15  H2
	O2(g)           -33.12  -36.08   -2.96  O2

------------------
End of simulation.
------------------

-------------------------------------
Reading input data for simulation 50.
-------------------------------------

	MIX 49 
		1002	0.141914	
	 SAVE SOLUTION	49	 
	 END
-----------------------------------------
Beginning of batch-reaction calculations.
-----------------------------------------

Reaction step 1.

Using mix 49.	

Mixture 49.	

	 1.419e-001 Solution 1002	initial condition 28-100                               

-----------------------------Solution composition------------------------------

	Elements           Molality       Moles

	Br               7.800e-004  1.107e-004
	Ca               9.800e-005  1.391e-005
	K                1.200e-004  1.703e-005
	Mg               5.000e-006  7.096e-007
	Na               4.573e-004  6.489e-005

----------------------------Description of solution----------------------------

                                       pH  =   8.500      Charge balance
                                       pe  =   4.000      Adjusted to redox equilibrium
                        Activity of water  =   1.000
                           Ionic strength  =  8.863e-004
                       Mass of water (kg)  =  1.419e-001
                 Total alkalinity (eq/kg)  =  3.278e-006
                    Total carbon (mol/kg)  =  0.000e+000
                       Total CO2 (mol/kg)  =  0.000e+000
                      Temperature (deg C)  =  25.000
                  Electrical balance (eq)  =  3.853e-013
 Percent error, 100*(Cat-|An|)/(Cat+|An|)  =   0.00
                               Iterations  =   0
                                  Total H  = 1.575422e+001
                                  Total O  = 7.877110e+000

----------------------------Distribution of species----------------------------

                                                   Log       Log         Log 
   Species                 Molality    Activity  Molality  Activity     Gamma

   OH-                   3.270e-006  3.162e-006    -5.485    -5.500    -0.015
   H+                    3.265e-009  3.162e-009    -8.486    -8.500    -0.014
   H2O                   5.551e+001  1.000e+000     1.744    -0.000     0.000
Br              7.800e-004
   Br-                   7.800e-004  7.541e-004    -3.108    -3.123    -0.015
Ca              9.800e-005
   Ca+2                  9.800e-005  8.589e-005    -4.009    -4.066    -0.057
   CaOH+                 4.661e-009  4.508e-009    -8.332    -8.346    -0.015
H(0)            1.416e-028
   H2                    7.078e-029  7.079e-029   -28.150   -28.150     0.000
K               1.200e-004
   K+                    1.200e-004  1.160e-004    -3.921    -3.936    -0.015
   KOH                   1.272e-010  1.272e-010    -9.896    -9.896     0.000
Mg              5.000e-006
   Mg+2                  4.995e-006  4.388e-006    -5.301    -5.358    -0.056
   MgOH+                 5.210e-009  5.038e-009    -8.283    -8.298    -0.015
Na              4.573e-004
   Na+                   4.573e-004  4.422e-004    -3.340    -3.354    -0.015
   NaOH                  9.239e-010  9.239e-010    -9.034    -9.034     0.000
O(0)            1.663e-036
   O2                    8.316e-037  8.317e-037   -36.080   -36.080     0.000

------------------------------Saturation indices-------------------------------

	Phase               SI log IAP  log KT

	H2(g)           -25.00  -28.15   -3.15  H2
	O2(g)           -33.12  -36.08   -2.96  O2

------------------
End of simulation.
------------------

-------------------------------------
Reading input data for simulation 51.
-------------------------------------

	MIX 50 
		1002	0.141914	
	 SAVE SOLUTION	50	 
	 END
-----------------------------------------
Beginning of batch-reaction calculations.
-----------------------------------------

Reaction step 1.

Using mix 50.	

Mixture 50.	

	 1.419e-001 Solution 1002	initial condition 28-100                               

-----------------------------Solution composition------------------------------

	Elements           Molality       Moles

	Br               7.800e-004  1.107e-004
	Ca               9.800e-005  1.391e-005
	K                1.200e-004  1.703e-005
	Mg               5.000e-006  7.096e-007
	Na               4.573e-004  6.489e-005

----------------------------Description of solution----------------------------

                                       pH  =   8.500      Charge balance
                                       pe  =   4.000      Adjusted to redox equilibrium
                        Activity of water  =   1.000
                           Ionic strength  =  8.863e-004
                       Mass of water (kg)  =  1.419e-001
                 Total alkalinity (eq/kg)  =  3.278e-006
                    Total carbon (mol/kg)  =  0.000e+000
                       Total CO2 (mol/kg)  =  0.000e+000
                      Temperature (deg C)  =  25.000
                  Electrical balance (eq)  =  3.853e-013
 Percent error, 100*(Cat-|An|)/(Cat+|An|)  =   0.00
                               Iterations  =   0
                                  Total H  = 1.575422e+001
                                  Total O  = 7.877110e+000

----------------------------Distribution of species----------------------------

                                                   Log       Log         Log 
   Species                 Molality    Activity  Molality  Activity     Gamma

   OH-                   3.270e-006  3.162e-006    -5.485    -5.500    -0.015
   H+                    3.265e-009  3.162e-009    -8.486    -8.500    -0.014
   H2O                   5.551e+001  1.000e+000     1.744    -0.000     0.000
Br              7.800e-004
   Br-                   7.800e-004  7.541e-004    -3.108    -3.123    -0.015
Ca              9.800e-005
   Ca+2                  9.800e-005  8.589e-005    -4.009    -4.066    -0.057
   CaOH+                 4.661e-009  4.508e-009    -8.332    -8.346    -0.015
H(0)            1.416e-028
   H2                    7.078e-029  7.079e-029   -28.150   -28.150     0.000
K               1.200e-004
   K+                    1.200e-004  1.160e-004    -3.921    -3.936    -0.015
   KOH                   1.272e-010  1.272e-010    -9.896    -9.896     0.000
Mg              5.000e-006
   Mg+2                  4.995e-006  4.388e-006    -5.301    -5.358    -0.056
   MgOH+                 5.210e-009  5.038e-009    -8.283    -8.298    -0.015
Na              4.573e-004
   Na+                   4.573e-004  4.422e-004    -3.340    -3.354    -0.015
   NaOH                  9.239e-010  9.239e-010    -9.034    -9.034     0.000
O(0)            1.663e-036
   O2                    8.316e-037  8.317e-037   -36.080   -36.080     0.000

------------------------------Saturation indices-------------------------------

	Phase               SI log IAP  log KT

	H2(g)           -25.00  -28.15   -3.15  H2
	O2(g)           -33.12  -36.08   -2.96  O2

------------------
End of simulation.
------------------

-------------------------------------
Reading input data for simulation 52.
-------------------------------------

	MIX 51 
		1002	0.141914	
	 SAVE SOLUTION	51	 
	 END
-----------------------------------------
Beginning of batch-reaction calculations.
-----------------------------------------

Reaction step 1.

Using mix 51.	

Mixture 51.	

	 1.419e-001 Solution 1002	initial condition 28-100                               

-----------------------------Solution composition------------------------------

	Elements           Molality       Moles

	Br               7.800e-004  1.107e-004
	Ca               9.800e-005  1.391e-005
	K                1.200e-004  1.703e-005
	Mg               5.000e-006  7.096e-007
	Na               4.573e-004  6.489e-005

----------------------------Description of solution----------------------------

                                       pH  =   8.500      Charge balance
                                       pe  =   4.000      Adjusted to redox equilibrium
                        Activity of water  =   1.000
                           Ionic strength  =  8.863e-004
                       Mass of water (kg)  =  1.419e-001
                 Total alkalinity (eq/kg)  =  3.278e-006
                    Total carbon (mol/kg)  =  0.000e+000
                       Total CO2 (mol/kg)  =  0.000e+000
                      Temperature (deg C)  =  25.000
                  Electrical balance (eq)  =  3.853e-013
 Percent error, 100*(Cat-|An|)/(Cat+|An|)  =   0.00
                               Iterations  =   0
                                  Total H  = 1.575422e+001
                                  Total O  = 7.877110e+000

----------------------------Distribution of species----------------------------

                                                   Log       Log         Log 
   Species                 Molality    Activity  Molality  Activity     Gamma

   OH-                   3.270e-006  3.162e-006    -5.485    -5.500    -0.015
   H+                    3.265e-009  3.162e-009    -8.486    -8.500    -0.014
   H2O                   5.551e+001  1.000e+000     1.744    -0.000     0.000
Br              7.800e-004
   Br-                   7.800e-004  7.541e-004    -3.108    -3.123    -0.015
Ca              9.800e-005
   Ca+2                  9.800e-005  8.589e-005    -4.009    -4.066    -0.057
   CaOH+                 4.661e-009  4.508e-009    -8.332    -8.346    -0.015
H(0)            1.416e-028
   H2                    7.078e-029  7.079e-029   -28.150   -28.150     0.000
K               1.200e-004
   K+                    1.200e-004  1.160e-004    -3.921    -3.936    -0.015
   KOH                   1.272e-010  1.272e-010    -9.896    -9.896     0.000
Mg              5.000e-006
   Mg+2                  4.995e-006  4.388e-006    -5.301    -5.358    -0.056
   MgOH+                 5.210e-009  5.038e-009    -8.283    -8.298    -0.015
Na              4.573e-004
   Na+                   4.573e-004  4.422e-004    -3.340    -3.354    -0.015
   NaOH                  9.239e-010  9.239e-010    -9.034    -9.034     0.000
O(0)            1.663e-036
   O2                    8.316e-037  8.317e-037   -36.080   -36.080     0.000

------------------------------Saturation indices-------------------------------

	Phase               SI log IAP  log KT

	H2(g)           -25.00  -28.15   -3.15  H2
	O2(g)           -33.12  -36.08   -2.96  O2

------------------
End of simulation.
------------------

-------------------------------------
Reading input data for simulation 53.
-------------------------------------

	EXCHANGE 1-13 @Layer 1@
	 Xa 0.003
	 Xb 0.003
	 Xc 0.003
	 Xd 0.003
	 Xe 0.003
	 Xf 0.003
	 equilibrate with solution 1001
	EXCHANGE 14-23 @Layer 2@
	 Xa 0.0019
	 Xb 0.0019
	 Xc 0.0019
	 Xd 0.0019
	 Xe 0.0019
	 Xf 0.0019
	 equilibrate with solution 1001
	EXCHANGE 24-28 @Layer 3@
	 Xa 0.0111
	 Xb 0.0111
	 Xc 0.0111
	 Xd 0.0111
	 Xe 0.0111
	 Xf 0.0111
	 equilibrate with solution 1001
	EXCHANGE 29-33 @Layer 4@
	 Xa 0.009
	 Xb 0.009
	 Xc 0.009
	 Xd 0.009
	 Xe 0.009
	 Xf 0.009
	 equilibrate with solution 1002
	EXCHANGE 34-51 @Layer 5@
	 Xa 0.0019
	 Xb 0.0019
	 Xc 0.0019
	 Xd 0.0019
	 Xe 0.0019
	 Xf 0.0019
	 equilibrate with solution 1002
	PRINT
	 reset false
	 warnings 500
	TRANSPORT
	 cells 51
	 gnuplot true


--------------------------------
Printing G N U P L O T templates
--------------------------------

  Printing G N U P L O T template file: C:\ussl\HYDRUS-1D v4\Examples\HP1\MCATEXCH\ts_pH.plt
  Printing G N U P L O T template file: C:\ussl\HYDRUS-1D v4\Examples\HP1\MCATEXCH\pd_pH.plt
  Printing G N U P L O T template file: C:\ussl\HYDRUS-1D v4\Examples\HP1\MCATEXCH\ts_pe.plt
  Printing G N U P L O T template file: C:\ussl\HYDRUS-1D v4\Examples\HP1\MCATEXCH\pd_pe.plt
  Printing G N U P L O T template file: C:\ussl\HYDRUS-1D v4\Examples\HP1\MCATEXCH\ts_user_Cd.plt
  Printing G N U P L O T template file: C:\ussl\HYDRUS-1D v4\Examples\HP1\MCATEXCH\pd_user_Cd.plt
  Printing G N U P L O T template file: C:\ussl\HYDRUS-1D v4\Examples\HP1\MCATEXCH\ts_user_1 - Hsite div total CEC.plt
  Printing G N U P L O T template file: C:\ussl\HYDRUS-1D v4\Examples\HP1\MCATEXCH\pd_user_1 - Hsite div total CEC.plt
  Printing G N U P L O T template file: C:\ussl\HYDRUS-1D v4\Examples\HP1\MCATEXCH\ts_user_Cd-site div total CEC.plt
  Printing G N U P L O T template file: C:\ussl\HYDRUS-1D v4\Examples\HP1\MCATEXCH\pd_user_Cd-site div total CEC.plt
  Printing G N U P L O T template file: C:\ussl\HYDRUS-1D v4\Examples\HP1\MCATEXCH\ts_user_2timesCD-site.plt
  Printing G N U P L O T template file: C:\ussl\HYDRUS-1D v4\Examples\HP1\MCATEXCH\pd_user_2timesCD-site.plt


--------------------------------
STARTING TRANSPORT CALCULATIONS
--------------------------------

